*SPEF "ieee 1481-1999"
*DESIGN "macro_10"
*DATE "11:11:11 Fri 11 11, 1111"
*VENDOR "OpenRCX"
*PROGRAM "Parallel Extraction"
*VERSION "1.0"
*DESIGN_FLOW "NAME_SCOPE LOCAL" "PIN_CAP NONE"
*DIVIDER /
*DELIMITER :
*BUS_DELIMITER []
*T_UNIT 1 NS
*C_UNIT 1 PF
*R_UNIT 1 OHM
*L_UNIT 1 HENRY

*NAME_MAP
*1 io_active
*2 io_in[0]
*3 io_in[10]
*4 io_in[11]
*5 io_in[12]
*6 io_in[13]
*7 io_in[14]
*8 io_in[15]
*9 io_in[16]
*10 io_in[17]
*11 io_in[18]
*12 io_in[19]
*13 io_in[1]
*14 io_in[20]
*15 io_in[21]
*16 io_in[22]
*17 io_in[23]
*18 io_in[24]
*19 io_in[25]
*20 io_in[26]
*21 io_in[27]
*22 io_in[28]
*23 io_in[29]
*24 io_in[2]
*25 io_in[30]
*26 io_in[31]
*27 io_in[32]
*28 io_in[33]
*29 io_in[34]
*30 io_in[35]
*31 io_in[36]
*32 io_in[37]
*33 io_in[3]
*34 io_in[4]
*35 io_in[5]
*36 io_in[6]
*37 io_in[7]
*38 io_in[8]
*39 io_in[9]
*40 net226
*41 net236
*42 net237
*43 net238
*44 net239
*45 net240
*46 net241
*47 net242
*48 net243
*49 net244
*50 net245
*51 net227
*52 net246
*53 net247
*54 net248
*55 net249
*56 net250
*57 net251
*58 net252
*59 net253
*60 net254
*61 net255
*62 net228
*63 net256
*64 net257
*65 net258
*66 net37
*67 net38
*68 net39
*69 net40
*70 net41
*71 net229
*72 net230
*73 net231
*74 net232
*75 net233
*76 net234
*77 net235
*78 io_out[0]
*79 io_out[10]
*80 io_out[11]
*81 io_out[12]
*82 io_out[13]
*83 io_out[14]
*84 io_out[15]
*85 io_out[16]
*86 io_out[17]
*87 net45
*88 net46
*89 net42
*90 net47
*91 net48
*92 net49
*93 net50
*94 net51
*95 net52
*96 net53
*97 net54
*98 net55
*99 net56
*100 net43
*101 net57
*102 net58
*103 net59
*104 net60
*105 net61
*106 net62
*107 net63
*108 net64
*109 net44
*110 io_out[4]
*111 io_out[5]
*112 io_out[6]
*113 io_out[7]
*114 io_out[8]
*115 io_out[9]
*116 la_data_in[0]
*117 la_data_in[100]
*118 la_data_in[101]
*119 la_data_in[102]
*120 la_data_in[103]
*121 la_data_in[104]
*122 la_data_in[105]
*123 la_data_in[106]
*124 la_data_in[107]
*125 la_data_in[108]
*126 la_data_in[109]
*127 la_data_in[10]
*128 la_data_in[110]
*129 la_data_in[111]
*130 la_data_in[112]
*131 la_data_in[113]
*132 la_data_in[114]
*133 la_data_in[115]
*134 la_data_in[116]
*135 la_data_in[117]
*136 la_data_in[118]
*137 la_data_in[119]
*138 la_data_in[11]
*139 la_data_in[120]
*140 la_data_in[121]
*141 la_data_in[122]
*142 la_data_in[123]
*143 la_data_in[124]
*144 la_data_in[125]
*145 la_data_in[126]
*146 la_data_in[127]
*147 la_data_in[12]
*148 la_data_in[13]
*149 la_data_in[14]
*150 la_data_in[15]
*151 la_data_in[16]
*152 la_data_in[17]
*153 la_data_in[18]
*154 la_data_in[19]
*155 la_data_in[1]
*156 la_data_in[20]
*157 la_data_in[21]
*158 la_data_in[22]
*159 la_data_in[23]
*160 la_data_in[24]
*161 la_data_in[25]
*162 la_data_in[26]
*163 la_data_in[27]
*164 la_data_in[28]
*165 la_data_in[29]
*166 la_data_in[2]
*167 la_data_in[30]
*168 la_data_in[31]
*169 la_data_in[32]
*170 la_data_in[33]
*171 la_data_in[34]
*172 la_data_in[35]
*173 la_data_in[36]
*174 la_data_in[37]
*175 la_data_in[38]
*176 la_data_in[39]
*177 la_data_in[3]
*178 la_data_in[40]
*179 la_data_in[41]
*180 la_data_in[42]
*181 la_data_in[43]
*182 la_data_in[44]
*183 la_data_in[45]
*184 la_data_in[46]
*185 la_data_in[47]
*186 la_data_in[48]
*187 la_data_in[49]
*188 la_data_in[4]
*189 la_data_in[50]
*190 la_data_in[51]
*191 la_data_in[52]
*192 la_data_in[53]
*193 la_data_in[54]
*194 la_data_in[55]
*195 la_data_in[56]
*196 la_data_in[57]
*197 la_data_in[58]
*198 la_data_in[59]
*199 la_data_in[5]
*200 la_data_in[60]
*201 la_data_in[61]
*202 la_data_in[62]
*203 la_data_in[63]
*204 la_data_in[64]
*205 la_data_in[65]
*206 la_data_in[66]
*207 la_data_in[67]
*208 la_data_in[68]
*209 la_data_in[69]
*210 la_data_in[6]
*211 la_data_in[70]
*212 la_data_in[71]
*213 la_data_in[72]
*214 la_data_in[73]
*215 la_data_in[74]
*216 la_data_in[75]
*217 la_data_in[76]
*218 la_data_in[77]
*219 la_data_in[78]
*220 la_data_in[79]
*221 la_data_in[7]
*222 la_data_in[80]
*223 la_data_in[81]
*224 la_data_in[82]
*225 la_data_in[83]
*226 la_data_in[84]
*227 la_data_in[85]
*228 la_data_in[86]
*229 la_data_in[87]
*230 la_data_in[88]
*231 la_data_in[89]
*232 la_data_in[8]
*233 la_data_in[90]
*234 la_data_in[91]
*235 la_data_in[92]
*236 la_data_in[93]
*237 la_data_in[94]
*238 la_data_in[95]
*239 la_data_in[96]
*240 la_data_in[97]
*241 la_data_in[98]
*242 la_data_in[99]
*243 la_data_in[9]
*244 net65
*245 net133
*246 net134
*247 net135
*248 net136
*249 net137
*250 net138
*251 net139
*252 net140
*253 net141
*254 net142
*255 net75
*256 net143
*257 net144
*258 net145
*259 net146
*260 net147
*261 net148
*262 net149
*263 net150
*264 net151
*265 net152
*266 net76
*267 net153
*268 net154
*269 net155
*270 net156
*271 net157
*272 net158
*273 net159
*274 net160
*275 net77
*276 net78
*277 net79
*278 net80
*279 net81
*280 net82
*281 net83
*282 net84
*283 net66
*284 net85
*285 net86
*286 net87
*287 net88
*288 net89
*289 net90
*290 net91
*291 net92
*292 net93
*293 net94
*294 net67
*295 net95
*296 net96
*297 la_data_out[32]
*298 la_data_out[33]
*299 la_data_out[34]
*300 la_data_out[35]
*301 la_data_out[36]
*302 la_data_out[37]
*303 la_data_out[38]
*304 la_data_out[39]
*305 net68
*306 la_data_out[40]
*307 la_data_out[41]
*308 la_data_out[42]
*309 la_data_out[43]
*310 la_data_out[44]
*311 la_data_out[45]
*312 la_data_out[46]
*313 la_data_out[47]
*314 la_data_out[48]
*315 la_data_out[49]
*316 net69
*317 la_data_out[50]
*318 la_data_out[51]
*319 la_data_out[52]
*320 la_data_out[53]
*321 la_data_out[54]
*322 la_data_out[55]
*323 la_data_out[56]
*324 la_data_out[57]
*325 la_data_out[58]
*326 la_data_out[59]
*327 net70
*328 la_data_out[60]
*329 la_data_out[61]
*330 la_data_out[62]
*331 la_data_out[63]
*332 net97
*333 net98
*334 net99
*335 net100
*336 net101
*337 net102
*338 net71
*339 net103
*340 net104
*341 net105
*342 net106
*343 net107
*344 net108
*345 net109
*346 net110
*347 net111
*348 net112
*349 net72
*350 net113
*351 net114
*352 net115
*353 net116
*354 net117
*355 net118
*356 net119
*357 net120
*358 net121
*359 net122
*360 net73
*361 net123
*362 net124
*363 net125
*364 net126
*365 net127
*366 net128
*367 net129
*368 net130
*369 net131
*370 net132
*371 net74
*372 la_oenb[0]
*373 la_oenb[100]
*374 la_oenb[101]
*375 la_oenb[102]
*376 la_oenb[103]
*377 la_oenb[104]
*378 la_oenb[105]
*379 la_oenb[106]
*380 la_oenb[107]
*381 la_oenb[108]
*382 la_oenb[109]
*383 la_oenb[10]
*384 la_oenb[110]
*385 la_oenb[111]
*386 la_oenb[112]
*387 la_oenb[113]
*388 la_oenb[114]
*389 la_oenb[115]
*390 la_oenb[116]
*391 la_oenb[117]
*392 la_oenb[118]
*393 la_oenb[119]
*394 la_oenb[11]
*395 la_oenb[120]
*396 la_oenb[121]
*397 la_oenb[122]
*398 la_oenb[123]
*399 la_oenb[124]
*400 la_oenb[125]
*401 la_oenb[126]
*402 la_oenb[127]
*403 la_oenb[12]
*404 la_oenb[13]
*405 la_oenb[14]
*406 la_oenb[15]
*407 la_oenb[16]
*408 la_oenb[17]
*409 la_oenb[18]
*410 la_oenb[19]
*411 la_oenb[1]
*412 la_oenb[20]
*413 la_oenb[21]
*414 la_oenb[22]
*415 la_oenb[23]
*416 la_oenb[24]
*417 la_oenb[25]
*418 la_oenb[26]
*419 la_oenb[27]
*420 la_oenb[28]
*421 la_oenb[29]
*422 la_oenb[2]
*423 la_oenb[30]
*424 la_oenb[31]
*425 la_oenb[32]
*426 la_oenb[33]
*427 la_oenb[34]
*428 la_oenb[35]
*429 la_oenb[36]
*430 la_oenb[37]
*431 la_oenb[38]
*432 la_oenb[39]
*433 la_oenb[3]
*434 la_oenb[40]
*435 la_oenb[41]
*436 la_oenb[42]
*437 la_oenb[43]
*438 la_oenb[44]
*439 la_oenb[45]
*440 la_oenb[46]
*441 la_oenb[47]
*442 la_oenb[48]
*443 la_oenb[49]
*444 la_oenb[4]
*445 la_oenb[50]
*446 la_oenb[51]
*447 la_oenb[52]
*448 la_oenb[53]
*449 la_oenb[54]
*450 la_oenb[55]
*451 la_oenb[56]
*452 la_oenb[57]
*453 la_oenb[58]
*454 la_oenb[59]
*455 la_oenb[5]
*456 la_oenb[60]
*457 la_oenb[61]
*458 la_oenb[62]
*459 la_oenb[63]
*460 la_oenb[64]
*461 la_oenb[65]
*462 la_oenb[66]
*463 la_oenb[67]
*464 la_oenb[68]
*465 la_oenb[69]
*466 la_oenb[6]
*467 la_oenb[70]
*468 la_oenb[71]
*469 la_oenb[72]
*470 la_oenb[73]
*471 la_oenb[74]
*472 la_oenb[75]
*473 la_oenb[76]
*474 la_oenb[77]
*475 la_oenb[78]
*476 la_oenb[79]
*477 la_oenb[7]
*478 la_oenb[80]
*479 la_oenb[81]
*480 la_oenb[82]
*481 la_oenb[83]
*482 la_oenb[84]
*483 la_oenb[85]
*484 la_oenb[86]
*485 la_oenb[87]
*486 la_oenb[88]
*487 la_oenb[89]
*488 la_oenb[8]
*489 la_oenb[90]
*490 la_oenb[91]
*491 la_oenb[92]
*492 la_oenb[93]
*493 la_oenb[94]
*494 la_oenb[95]
*495 la_oenb[96]
*496 la_oenb[97]
*497 la_oenb[98]
*498 la_oenb[99]
*499 la_oenb[9]
*502 wb_clk_i
*503 wb_rst_i
*504 net161
*505 wbs_adr_i[0]
*506 wbs_adr_i[10]
*507 wbs_adr_i[11]
*508 wbs_adr_i[12]
*509 wbs_adr_i[13]
*510 wbs_adr_i[14]
*511 wbs_adr_i[15]
*512 wbs_adr_i[16]
*513 wbs_adr_i[17]
*514 wbs_adr_i[18]
*515 wbs_adr_i[19]
*516 wbs_adr_i[1]
*517 wbs_adr_i[20]
*518 wbs_adr_i[21]
*519 wbs_adr_i[22]
*520 wbs_adr_i[23]
*521 wbs_adr_i[24]
*522 wbs_adr_i[25]
*523 wbs_adr_i[26]
*524 wbs_adr_i[27]
*525 wbs_adr_i[28]
*526 wbs_adr_i[29]
*527 wbs_adr_i[2]
*528 wbs_adr_i[30]
*529 wbs_adr_i[31]
*530 wbs_adr_i[3]
*531 wbs_adr_i[4]
*532 wbs_adr_i[5]
*533 wbs_adr_i[6]
*534 wbs_adr_i[7]
*535 wbs_adr_i[8]
*536 wbs_adr_i[9]
*537 wbs_cyc_i
*538 wbs_dat_i[0]
*539 wbs_dat_i[10]
*540 wbs_dat_i[11]
*541 wbs_dat_i[12]
*542 wbs_dat_i[13]
*543 wbs_dat_i[14]
*544 wbs_dat_i[15]
*545 wbs_dat_i[16]
*546 wbs_dat_i[17]
*547 wbs_dat_i[18]
*548 wbs_dat_i[19]
*549 wbs_dat_i[1]
*550 wbs_dat_i[20]
*551 wbs_dat_i[21]
*552 wbs_dat_i[22]
*553 wbs_dat_i[23]
*554 wbs_dat_i[24]
*555 wbs_dat_i[25]
*556 wbs_dat_i[26]
*557 wbs_dat_i[27]
*558 wbs_dat_i[28]
*559 wbs_dat_i[29]
*560 wbs_dat_i[2]
*561 wbs_dat_i[30]
*562 wbs_dat_i[31]
*563 wbs_dat_i[3]
*564 wbs_dat_i[4]
*565 wbs_dat_i[5]
*566 wbs_dat_i[6]
*567 wbs_dat_i[7]
*568 wbs_dat_i[8]
*569 wbs_dat_i[9]
*570 net162
*571 net172
*572 net173
*573 net174
*574 net175
*575 net176
*576 net177
*577 net178
*578 net179
*579 net180
*580 net181
*581 net163
*582 net182
*583 net183
*584 net184
*585 net185
*586 net186
*587 net187
*588 net188
*589 net189
*590 net190
*591 net191
*592 net164
*593 net192
*594 net193
*595 net165
*596 net166
*597 net167
*598 net168
*599 net169
*600 net170
*601 net171
*602 wbs_sel_i[0]
*603 wbs_sel_i[1]
*604 wbs_sel_i[2]
*605 wbs_sel_i[3]
*606 wbs_stb_i
*607 wbs_we_i
*608 _000_
*609 _001_
*610 _002_
*611 _003_
*612 _004_
*613 _005_
*614 _006_
*615 _007_
*616 _008_
*617 _009_
*618 _010_
*619 _011_
*620 _012_
*621 _013_
*622 _014_
*623 _015_
*624 _016_
*625 _017_
*626 _018_
*627 _019_
*628 _020_
*629 _021_
*630 _022_
*631 _023_
*632 _024_
*633 _025_
*634 _026_
*635 _027_
*636 _028_
*637 _029_
*638 _030_
*639 _031_
*640 _032_
*641 _033_
*642 _034_
*643 _035_
*644 _036_
*645 _037_
*646 _038_
*647 _039_
*648 _040_
*649 _041_
*650 _042_
*651 _043_
*652 _044_
*653 _045_
*654 _046_
*655 _047_
*656 _048_
*657 _049_
*658 _050_
*659 _051_
*660 _052_
*661 _053_
*662 _054_
*663 _055_
*664 _056_
*665 _057_
*666 _058_
*667 _059_
*668 _060_
*669 _061_
*670 _062_
*671 _063_
*672 _064_
*673 _065_
*674 _066_
*675 _067_
*676 _068_
*677 _069_
*678 _070_
*679 _071_
*680 _072_
*681 _073_
*682 _074_
*683 _075_
*684 _076_
*685 _077_
*686 _078_
*687 _079_
*688 _080_
*689 _081_
*690 _082_
*691 _083_
*692 _084_
*693 _085_
*694 _086_
*695 _087_
*696 _088_
*697 _089_
*698 _090_
*699 _091_
*700 _092_
*701 _093_
*702 _094_
*703 _095_
*704 _096_
*705 _097_
*706 _098_
*707 _099_
*708 _100_
*709 _101_
*710 _102_
*711 _103_
*712 _104_
*713 _105_
*714 _106_
*715 _107_
*716 _108_
*717 _109_
*718 _110_
*719 _111_
*720 _112_
*721 _113_
*722 _114_
*723 _115_
*724 _116_
*725 _117_
*726 _118_
*727 _119_
*728 _120_
*729 _121_
*730 _122_
*731 _123_
*732 _124_
*733 net1
*734 net10
*735 net11
*736 net12
*737 net13
*738 net14
*739 net15
*740 net16
*741 net17
*742 net18
*743 net19
*744 net194
*745 net195
*746 net196
*747 net197
*748 net198
*749 net199
*750 net2
*751 net20
*752 net200
*753 net201
*754 net202
*755 net203
*756 net204
*757 net205
*758 net206
*759 net207
*760 net208
*761 net209
*762 net21
*763 net210
*764 net211
*765 net212
*766 net213
*767 net214
*768 net215
*769 net216
*770 net217
*771 net218
*772 net219
*773 net22
*774 net220
*775 net221
*776 net222
*777 net223
*778 net224
*779 net225
*780 net23
*781 net24
*782 net25
*783 net26
*784 net27
*785 net28
*786 net29
*787 net3
*788 net30
*789 net31
*790 net32
*791 net33
*792 net34
*793 net35
*794 net36
*795 net4
*796 net5
*797 net6
*798 net7
*799 net8
*800 net9
*801 ANTENNA__157__A
*802 ANTENNA__158__A
*803 ANTENNA__159__A
*804 ANTENNA__170__A
*805 ANTENNA__181__A
*806 ANTENNA__192__A
*807 ANTENNA__193__A_N
*808 ANTENNA__193__B
*809 ANTENNA__211__B1
*810 ANTENNA__213__A_N
*811 ANTENNA__231__B1
*812 ANTENNA__235__B1
*813 ANTENNA__236__A
*814 ANTENNA__237__B2
*815 ANTENNA__239__A2
*816 ANTENNA__240__A
*817 ANTENNA__243__A2
*818 ANTENNA__244__A
*819 ANTENNA__246__A
*820 ANTENNA__251__A2
*821 ANTENNA__252__A2
*822 ANTENNA__253__A1
*823 ANTENNA__258__A1
*824 ANTENNA__259__A
*825 ANTENNA__261__A
*826 ANTENNA__264__A1
*827 ANTENNA__265__A
*828 ANTENNA__268__B1
*829 ANTENNA__269__A1
*830 ANTENNA__274__B1
*831 ANTENNA__275__A1
*832 ANTENNA__276__A
*833 ANTENNA__278__A
*834 ANTENNA__284__A
*835 ANTENNA__285__A2
*836 ANTENNA__286__A2
*837 ANTENNA__295__A1
*838 ANTENNA__295__C1
*839 ANTENNA_input10_A
*840 ANTENNA_input11_A
*841 ANTENNA_input12_A
*842 ANTENNA_input13_A
*843 ANTENNA_input14_A
*844 ANTENNA_input15_A
*845 ANTENNA_input16_A
*846 ANTENNA_input17_A
*847 ANTENNA_input18_A
*848 ANTENNA_input19_A
*849 ANTENNA_input1_A
*850 ANTENNA_input20_A
*851 ANTENNA_input21_A
*852 ANTENNA_input2_A
*853 ANTENNA_input3_A
*854 ANTENNA_input4_A
*855 ANTENNA_input5_A
*856 ANTENNA_input6_A
*857 ANTENNA_input7_A
*858 ANTENNA_input8_A
*859 ANTENNA_input9_A
*860 ANTENNA_output22_A
*861 ANTENNA_output31_A
*862 FILLER_0_103
*863 FILLER_0_106
*864 FILLER_0_117
*865 FILLER_0_124
*866 FILLER_0_127
*867 FILLER_0_138
*868 FILLER_0_145
*869 FILLER_0_148
*870 FILLER_0_15
*871 FILLER_0_159
*872 FILLER_0_166
*873 FILLER_0_169
*874 FILLER_0_180
*875 FILLER_0_187
*876 FILLER_0_190
*877 FILLER_0_201
*878 FILLER_0_208
*879 FILLER_0_211
*880 FILLER_0_22
*881 FILLER_0_222
*882 FILLER_0_229
*883 FILLER_0_232
*884 FILLER_0_243
*885 FILLER_0_250
*886 FILLER_0_253
*887 FILLER_0_264
*888 FILLER_0_271
*889 FILLER_0_274
*890 FILLER_0_285
*891 FILLER_0_292
*892 FILLER_0_295
*893 FILLER_0_3
*894 FILLER_0_306
*895 FILLER_0_313
*896 FILLER_0_316
*897 FILLER_0_321
*898 FILLER_0_328
*899 FILLER_0_337
*900 FILLER_0_34
*901 FILLER_0_342
*902 FILLER_0_349
*903 FILLER_0_358
*904 FILLER_0_363
*905 FILLER_0_370
*906 FILLER_0_379
*907 FILLER_0_384
*908 FILLER_0_391
*909 FILLER_0_400
*910 FILLER_0_405
*911 FILLER_0_412
*912 FILLER_0_421
*913 FILLER_0_426
*914 FILLER_0_43
*915 FILLER_0_433
*916 FILLER_0_442
*917 FILLER_0_447
*918 FILLER_0_454
*919 FILLER_0_463
*920 FILLER_0_468
*921 FILLER_0_475
*922 FILLER_0_484
*923 FILLER_0_489
*924 FILLER_0_496
*925 FILLER_0_505
*926 FILLER_0_510
*927 FILLER_0_517
*928 FILLER_0_526
*929 FILLER_0_531
*930 FILLER_0_538
*931 FILLER_0_547
*932 FILLER_0_55
*933 FILLER_0_552
*934 FILLER_0_559
*935 FILLER_0_568
*936 FILLER_0_573
*937 FILLER_0_580
*938 FILLER_0_589
*939 FILLER_0_601
*940 FILLER_0_610
*941 FILLER_0_622
*942 FILLER_0_64
*943 FILLER_0_75
*944 FILLER_0_82
*945 FILLER_0_85
*946 FILLER_0_96
*947 FILLER_100_104
*948 FILLER_100_108
*949 FILLER_100_117
*950 FILLER_100_123
*951 FILLER_100_132
*952 FILLER_100_144
*953 FILLER_100_15
*954 FILLER_100_151
*955 FILLER_100_163
*956 FILLER_100_171
*957 FILLER_100_177
*958 FILLER_100_189
*959 FILLER_100_194
*960 FILLER_100_199
*961 FILLER_100_211
*962 FILLER_100_22
*963 FILLER_100_222
*964 FILLER_100_230
*965 FILLER_100_234
*966 FILLER_100_237
*967 FILLER_100_241
*968 FILLER_100_253
*969 FILLER_100_259
*970 FILLER_100_26
*971 FILLER_100_268
*972 FILLER_100_277
*973 FILLER_100_280
*974 FILLER_100_29
*975 FILLER_100_290
*976 FILLER_100_3
*977 FILLER_100_301
*978 FILLER_100_314
*979 FILLER_100_320
*980 FILLER_100_323
*981 FILLER_100_328
*982 FILLER_100_340
*983 FILLER_100_348
*984 FILLER_100_356
*985 FILLER_100_363
*986 FILLER_100_366
*987 FILLER_100_375
*988 FILLER_100_389
*989 FILLER_100_395
*990 FILLER_100_406
*991 FILLER_100_409
*992 FILLER_100_41
*993 FILLER_100_421
*994 FILLER_100_427
*995 FILLER_100_436
*996 FILLER_100_447
*997 FILLER_100_452
*998 FILLER_100_460
*999 FILLER_100_464
*1000 FILLER_100_475
*1001 FILLER_100_482
*1002 FILLER_100_489
*1003 FILLER_100_493
*1004 FILLER_100_495
*1005 FILLER_100_500
*1006 FILLER_100_507
*1007 FILLER_100_513
*1008 FILLER_100_524
*1009 FILLER_100_53
*1010 FILLER_100_531
*1011 FILLER_100_538
*1012 FILLER_100_543
*1013 FILLER_100_550
*1014 FILLER_100_557
*1015 FILLER_100_564
*1016 FILLER_100_57
*1017 FILLER_100_571
*1018 FILLER_100_578
*1019 FILLER_100_581
*1020 FILLER_100_587
*1021 FILLER_100_593
*1022 FILLER_100_602
*1023 FILLER_100_614
*1024 FILLER_100_622
*1025 FILLER_100_624
*1026 FILLER_100_63
*1027 FILLER_100_65
*1028 FILLER_100_72
*1029 FILLER_100_84
*1030 FILLER_100_96
*1031 FILLER_101_102
*1032 FILLER_101_106
*1033 FILLER_101_112
*1034 FILLER_101_118
*1035 FILLER_101_123
*1036 FILLER_101_127
*1037 FILLER_101_133
*1038 FILLER_101_138
*1039 FILLER_101_145
*1040 FILLER_101_148
*1041 FILLER_101_15
*1042 FILLER_101_154
*1043 FILLER_101_158
*1044 FILLER_101_162
*1045 FILLER_101_169
*1046 FILLER_101_175
*1047 FILLER_101_183
*1048 FILLER_101_190
*1049 FILLER_101_198
*1050 FILLER_101_207
*1051 FILLER_101_211
*1052 FILLER_101_217
*1053 FILLER_101_22
*1054 FILLER_101_223
*1055 FILLER_101_228
*1056 FILLER_101_232
*1057 FILLER_101_242
*1058 FILLER_101_250
*1059 FILLER_101_253
*1060 FILLER_101_260
*1061 FILLER_101_269
*1062 FILLER_101_274
*1063 FILLER_101_28
*1064 FILLER_101_284
*1065 FILLER_101_292
*1066 FILLER_101_295
*1067 FILLER_101_3
*1068 FILLER_101_301
*1069 FILLER_101_310
*1070 FILLER_101_314
*1071 FILLER_101_316
*1072 FILLER_101_322
*1073 FILLER_101_326
*1074 FILLER_101_33
*1075 FILLER_101_333
*1076 FILLER_101_337
*1077 FILLER_101_349
*1078 FILLER_101_355
*1079 FILLER_101_358
*1080 FILLER_101_368
*1081 FILLER_101_375
*1082 FILLER_101_379
*1083 FILLER_101_391
*1084 FILLER_101_397
*1085 FILLER_101_40
*1086 FILLER_101_400
*1087 FILLER_101_412
*1088 FILLER_101_418
*1089 FILLER_101_421
*1090 FILLER_101_43
*1091 FILLER_101_430
*1092 FILLER_101_439
*1093 FILLER_101_442
*1094 FILLER_101_446
*1095 FILLER_101_460
*1096 FILLER_101_463
*1097 FILLER_101_471
*1098 FILLER_101_478
*1099 FILLER_101_482
*1100 FILLER_101_484
*1101 FILLER_101_49
*1102 FILLER_101_490
*1103 FILLER_101_497
*1104 FILLER_101_503
*1105 FILLER_101_505
*1106 FILLER_101_517
*1107 FILLER_101_523
*1108 FILLER_101_526
*1109 FILLER_101_539
*1110 FILLER_101_545
*1111 FILLER_101_547
*1112 FILLER_101_553
*1113 FILLER_101_565
*1114 FILLER_101_568
*1115 FILLER_101_57
*1116 FILLER_101_578
*1117 FILLER_101_585
*1118 FILLER_101_589
*1119 FILLER_101_595
*1120 FILLER_101_602
*1121 FILLER_101_608
*1122 FILLER_101_61
*1123 FILLER_101_610
*1124 FILLER_101_622
*1125 FILLER_101_64
*1126 FILLER_101_68
*1127 FILLER_101_75
*1128 FILLER_101_82
*1129 FILLER_101_85
*1130 FILLER_101_92
*1131 FILLER_101_98
*1132 FILLER_10_101
*1133 FILLER_10_108
*1134 FILLER_10_120
*1135 FILLER_10_132
*1136 FILLER_10_144
*1137 FILLER_10_15
*1138 FILLER_10_151
*1139 FILLER_10_163
*1140 FILLER_10_175
*1141 FILLER_10_187
*1142 FILLER_10_194
*1143 FILLER_10_206
*1144 FILLER_10_218
*1145 FILLER_10_22
*1146 FILLER_10_230
*1147 FILLER_10_237
*1148 FILLER_10_249
*1149 FILLER_10_261
*1150 FILLER_10_273
*1151 FILLER_10_276
*1152 FILLER_10_280
*1153 FILLER_10_292
*1154 FILLER_10_3
*1155 FILLER_10_304
*1156 FILLER_10_316
*1157 FILLER_10_323
*1158 FILLER_10_335
*1159 FILLER_10_34
*1160 FILLER_10_347
*1161 FILLER_10_359
*1162 FILLER_10_366
*1163 FILLER_10_378
*1164 FILLER_10_390
*1165 FILLER_10_402
*1166 FILLER_10_409
*1167 FILLER_10_421
*1168 FILLER_10_433
*1169 FILLER_10_445
*1170 FILLER_10_452
*1171 FILLER_10_46
*1172 FILLER_10_464
*1173 FILLER_10_476
*1174 FILLER_10_488
*1175 FILLER_10_495
*1176 FILLER_10_507
*1177 FILLER_10_519
*1178 FILLER_10_531
*1179 FILLER_10_538
*1180 FILLER_10_550
*1181 FILLER_10_562
*1182 FILLER_10_574
*1183 FILLER_10_58
*1184 FILLER_10_581
*1185 FILLER_10_593
*1186 FILLER_10_605
*1187 FILLER_10_617
*1188 FILLER_10_624
*1189 FILLER_10_65
*1190 FILLER_10_77
*1191 FILLER_10_89
*1192 FILLER_11_111
*1193 FILLER_11_123
*1194 FILLER_11_130
*1195 FILLER_11_142
*1196 FILLER_11_15
*1197 FILLER_11_154
*1198 FILLER_11_166
*1199 FILLER_11_173
*1200 FILLER_11_185
*1201 FILLER_11_197
*1202 FILLER_11_209
*1203 FILLER_11_216
*1204 FILLER_11_228
*1205 FILLER_11_240
*1206 FILLER_11_252
*1207 FILLER_11_259
*1208 FILLER_11_27
*1209 FILLER_11_271
*1210 FILLER_11_283
*1211 FILLER_11_295
*1212 FILLER_11_3
*1213 FILLER_11_302
*1214 FILLER_11_314
*1215 FILLER_11_326
*1216 FILLER_11_338
*1217 FILLER_11_345
*1218 FILLER_11_357
*1219 FILLER_11_369
*1220 FILLER_11_381
*1221 FILLER_11_388
*1222 FILLER_11_39
*1223 FILLER_11_400
*1224 FILLER_11_412
*1225 FILLER_11_424
*1226 FILLER_11_431
*1227 FILLER_11_44
*1228 FILLER_11_443
*1229 FILLER_11_455
*1230 FILLER_11_467
*1231 FILLER_11_474
*1232 FILLER_11_486
*1233 FILLER_11_498
*1234 FILLER_11_510
*1235 FILLER_11_517
*1236 FILLER_11_529
*1237 FILLER_11_541
*1238 FILLER_11_553
*1239 FILLER_11_56
*1240 FILLER_11_560
*1241 FILLER_11_572
*1242 FILLER_11_584
*1243 FILLER_11_596
*1244 FILLER_11_603
*1245 FILLER_11_615
*1246 FILLER_11_623
*1247 FILLER_11_68
*1248 FILLER_11_80
*1249 FILLER_11_87
*1250 FILLER_11_99
*1251 FILLER_12_101
*1252 FILLER_12_108
*1253 FILLER_12_120
*1254 FILLER_12_132
*1255 FILLER_12_144
*1256 FILLER_12_15
*1257 FILLER_12_151
*1258 FILLER_12_163
*1259 FILLER_12_175
*1260 FILLER_12_187
*1261 FILLER_12_194
*1262 FILLER_12_206
*1263 FILLER_12_218
*1264 FILLER_12_22
*1265 FILLER_12_230
*1266 FILLER_12_237
*1267 FILLER_12_249
*1268 FILLER_12_261
*1269 FILLER_12_273
*1270 FILLER_12_280
*1271 FILLER_12_292
*1272 FILLER_12_3
*1273 FILLER_12_304
*1274 FILLER_12_316
*1275 FILLER_12_323
*1276 FILLER_12_335
*1277 FILLER_12_34
*1278 FILLER_12_347
*1279 FILLER_12_359
*1280 FILLER_12_366
*1281 FILLER_12_378
*1282 FILLER_12_390
*1283 FILLER_12_402
*1284 FILLER_12_409
*1285 FILLER_12_421
*1286 FILLER_12_433
*1287 FILLER_12_445
*1288 FILLER_12_452
*1289 FILLER_12_46
*1290 FILLER_12_464
*1291 FILLER_12_476
*1292 FILLER_12_488
*1293 FILLER_12_495
*1294 FILLER_12_507
*1295 FILLER_12_519
*1296 FILLER_12_531
*1297 FILLER_12_538
*1298 FILLER_12_550
*1299 FILLER_12_562
*1300 FILLER_12_574
*1301 FILLER_12_58
*1302 FILLER_12_581
*1303 FILLER_12_593
*1304 FILLER_12_605
*1305 FILLER_12_617
*1306 FILLER_12_624
*1307 FILLER_12_65
*1308 FILLER_12_77
*1309 FILLER_12_89
*1310 FILLER_13_111
*1311 FILLER_13_123
*1312 FILLER_13_130
*1313 FILLER_13_142
*1314 FILLER_13_15
*1315 FILLER_13_154
*1316 FILLER_13_166
*1317 FILLER_13_173
*1318 FILLER_13_185
*1319 FILLER_13_197
*1320 FILLER_13_209
*1321 FILLER_13_216
*1322 FILLER_13_228
*1323 FILLER_13_240
*1324 FILLER_13_252
*1325 FILLER_13_259
*1326 FILLER_13_27
*1327 FILLER_13_271
*1328 FILLER_13_283
*1329 FILLER_13_295
*1330 FILLER_13_3
*1331 FILLER_13_302
*1332 FILLER_13_314
*1333 FILLER_13_326
*1334 FILLER_13_338
*1335 FILLER_13_345
*1336 FILLER_13_357
*1337 FILLER_13_369
*1338 FILLER_13_381
*1339 FILLER_13_388
*1340 FILLER_13_39
*1341 FILLER_13_400
*1342 FILLER_13_412
*1343 FILLER_13_424
*1344 FILLER_13_431
*1345 FILLER_13_44
*1346 FILLER_13_443
*1347 FILLER_13_455
*1348 FILLER_13_467
*1349 FILLER_13_474
*1350 FILLER_13_486
*1351 FILLER_13_498
*1352 FILLER_13_510
*1353 FILLER_13_517
*1354 FILLER_13_529
*1355 FILLER_13_541
*1356 FILLER_13_553
*1357 FILLER_13_56
*1358 FILLER_13_560
*1359 FILLER_13_572
*1360 FILLER_13_584
*1361 FILLER_13_596
*1362 FILLER_13_603
*1363 FILLER_13_615
*1364 FILLER_13_623
*1365 FILLER_13_68
*1366 FILLER_13_80
*1367 FILLER_13_87
*1368 FILLER_13_99
*1369 FILLER_14_101
*1370 FILLER_14_108
*1371 FILLER_14_120
*1372 FILLER_14_132
*1373 FILLER_14_144
*1374 FILLER_14_15
*1375 FILLER_14_151
*1376 FILLER_14_163
*1377 FILLER_14_175
*1378 FILLER_14_187
*1379 FILLER_14_194
*1380 FILLER_14_206
*1381 FILLER_14_218
*1382 FILLER_14_22
*1383 FILLER_14_230
*1384 FILLER_14_237
*1385 FILLER_14_249
*1386 FILLER_14_261
*1387 FILLER_14_273
*1388 FILLER_14_280
*1389 FILLER_14_292
*1390 FILLER_14_3
*1391 FILLER_14_304
*1392 FILLER_14_316
*1393 FILLER_14_323
*1394 FILLER_14_335
*1395 FILLER_14_34
*1396 FILLER_14_347
*1397 FILLER_14_359
*1398 FILLER_14_366
*1399 FILLER_14_378
*1400 FILLER_14_390
*1401 FILLER_14_402
*1402 FILLER_14_409
*1403 FILLER_14_421
*1404 FILLER_14_433
*1405 FILLER_14_445
*1406 FILLER_14_452
*1407 FILLER_14_46
*1408 FILLER_14_464
*1409 FILLER_14_476
*1410 FILLER_14_488
*1411 FILLER_14_495
*1412 FILLER_14_507
*1413 FILLER_14_519
*1414 FILLER_14_531
*1415 FILLER_14_538
*1416 FILLER_14_550
*1417 FILLER_14_562
*1418 FILLER_14_574
*1419 FILLER_14_58
*1420 FILLER_14_581
*1421 FILLER_14_593
*1422 FILLER_14_605
*1423 FILLER_14_617
*1424 FILLER_14_624
*1425 FILLER_14_65
*1426 FILLER_14_77
*1427 FILLER_14_89
*1428 FILLER_15_111
*1429 FILLER_15_123
*1430 FILLER_15_130
*1431 FILLER_15_142
*1432 FILLER_15_15
*1433 FILLER_15_154
*1434 FILLER_15_166
*1435 FILLER_15_173
*1436 FILLER_15_185
*1437 FILLER_15_197
*1438 FILLER_15_209
*1439 FILLER_15_216
*1440 FILLER_15_228
*1441 FILLER_15_240
*1442 FILLER_15_252
*1443 FILLER_15_259
*1444 FILLER_15_27
*1445 FILLER_15_271
*1446 FILLER_15_283
*1447 FILLER_15_295
*1448 FILLER_15_3
*1449 FILLER_15_302
*1450 FILLER_15_314
*1451 FILLER_15_326
*1452 FILLER_15_338
*1453 FILLER_15_345
*1454 FILLER_15_357
*1455 FILLER_15_369
*1456 FILLER_15_381
*1457 FILLER_15_388
*1458 FILLER_15_39
*1459 FILLER_15_400
*1460 FILLER_15_412
*1461 FILLER_15_424
*1462 FILLER_15_431
*1463 FILLER_15_44
*1464 FILLER_15_443
*1465 FILLER_15_455
*1466 FILLER_15_467
*1467 FILLER_15_474
*1468 FILLER_15_486
*1469 FILLER_15_498
*1470 FILLER_15_510
*1471 FILLER_15_517
*1472 FILLER_15_529
*1473 FILLER_15_541
*1474 FILLER_15_553
*1475 FILLER_15_56
*1476 FILLER_15_560
*1477 FILLER_15_572
*1478 FILLER_15_584
*1479 FILLER_15_596
*1480 FILLER_15_603
*1481 FILLER_15_615
*1482 FILLER_15_623
*1483 FILLER_15_68
*1484 FILLER_15_80
*1485 FILLER_15_87
*1486 FILLER_15_99
*1487 FILLER_16_101
*1488 FILLER_16_108
*1489 FILLER_16_120
*1490 FILLER_16_132
*1491 FILLER_16_144
*1492 FILLER_16_15
*1493 FILLER_16_151
*1494 FILLER_16_163
*1495 FILLER_16_175
*1496 FILLER_16_187
*1497 FILLER_16_194
*1498 FILLER_16_206
*1499 FILLER_16_218
*1500 FILLER_16_22
*1501 FILLER_16_230
*1502 FILLER_16_237
*1503 FILLER_16_249
*1504 FILLER_16_261
*1505 FILLER_16_273
*1506 FILLER_16_280
*1507 FILLER_16_292
*1508 FILLER_16_3
*1509 FILLER_16_304
*1510 FILLER_16_316
*1511 FILLER_16_323
*1512 FILLER_16_335
*1513 FILLER_16_34
*1514 FILLER_16_347
*1515 FILLER_16_359
*1516 FILLER_16_366
*1517 FILLER_16_378
*1518 FILLER_16_390
*1519 FILLER_16_402
*1520 FILLER_16_409
*1521 FILLER_16_421
*1522 FILLER_16_433
*1523 FILLER_16_445
*1524 FILLER_16_452
*1525 FILLER_16_46
*1526 FILLER_16_464
*1527 FILLER_16_476
*1528 FILLER_16_488
*1529 FILLER_16_495
*1530 FILLER_16_507
*1531 FILLER_16_519
*1532 FILLER_16_531
*1533 FILLER_16_538
*1534 FILLER_16_550
*1535 FILLER_16_562
*1536 FILLER_16_574
*1537 FILLER_16_58
*1538 FILLER_16_581
*1539 FILLER_16_593
*1540 FILLER_16_605
*1541 FILLER_16_617
*1542 FILLER_16_624
*1543 FILLER_16_65
*1544 FILLER_16_77
*1545 FILLER_16_89
*1546 FILLER_17_111
*1547 FILLER_17_123
*1548 FILLER_17_130
*1549 FILLER_17_142
*1550 FILLER_17_15
*1551 FILLER_17_154
*1552 FILLER_17_166
*1553 FILLER_17_173
*1554 FILLER_17_185
*1555 FILLER_17_197
*1556 FILLER_17_209
*1557 FILLER_17_216
*1558 FILLER_17_228
*1559 FILLER_17_240
*1560 FILLER_17_252
*1561 FILLER_17_259
*1562 FILLER_17_27
*1563 FILLER_17_271
*1564 FILLER_17_283
*1565 FILLER_17_295
*1566 FILLER_17_3
*1567 FILLER_17_302
*1568 FILLER_17_314
*1569 FILLER_17_326
*1570 FILLER_17_338
*1571 FILLER_17_345
*1572 FILLER_17_357
*1573 FILLER_17_369
*1574 FILLER_17_381
*1575 FILLER_17_388
*1576 FILLER_17_39
*1577 FILLER_17_400
*1578 FILLER_17_412
*1579 FILLER_17_424
*1580 FILLER_17_431
*1581 FILLER_17_44
*1582 FILLER_17_443
*1583 FILLER_17_455
*1584 FILLER_17_467
*1585 FILLER_17_474
*1586 FILLER_17_486
*1587 FILLER_17_498
*1588 FILLER_17_510
*1589 FILLER_17_517
*1590 FILLER_17_529
*1591 FILLER_17_541
*1592 FILLER_17_553
*1593 FILLER_17_56
*1594 FILLER_17_560
*1595 FILLER_17_572
*1596 FILLER_17_584
*1597 FILLER_17_596
*1598 FILLER_17_603
*1599 FILLER_17_615
*1600 FILLER_17_623
*1601 FILLER_17_68
*1602 FILLER_17_80
*1603 FILLER_17_87
*1604 FILLER_17_99
*1605 FILLER_18_101
*1606 FILLER_18_108
*1607 FILLER_18_120
*1608 FILLER_18_132
*1609 FILLER_18_144
*1610 FILLER_18_15
*1611 FILLER_18_151
*1612 FILLER_18_163
*1613 FILLER_18_175
*1614 FILLER_18_187
*1615 FILLER_18_194
*1616 FILLER_18_206
*1617 FILLER_18_218
*1618 FILLER_18_22
*1619 FILLER_18_230
*1620 FILLER_18_237
*1621 FILLER_18_249
*1622 FILLER_18_261
*1623 FILLER_18_273
*1624 FILLER_18_280
*1625 FILLER_18_292
*1626 FILLER_18_3
*1627 FILLER_18_304
*1628 FILLER_18_316
*1629 FILLER_18_323
*1630 FILLER_18_335
*1631 FILLER_18_34
*1632 FILLER_18_347
*1633 FILLER_18_359
*1634 FILLER_18_366
*1635 FILLER_18_378
*1636 FILLER_18_390
*1637 FILLER_18_402
*1638 FILLER_18_409
*1639 FILLER_18_421
*1640 FILLER_18_433
*1641 FILLER_18_445
*1642 FILLER_18_452
*1643 FILLER_18_46
*1644 FILLER_18_464
*1645 FILLER_18_476
*1646 FILLER_18_488
*1647 FILLER_18_495
*1648 FILLER_18_507
*1649 FILLER_18_519
*1650 FILLER_18_531
*1651 FILLER_18_538
*1652 FILLER_18_550
*1653 FILLER_18_562
*1654 FILLER_18_574
*1655 FILLER_18_58
*1656 FILLER_18_581
*1657 FILLER_18_593
*1658 FILLER_18_605
*1659 FILLER_18_617
*1660 FILLER_18_624
*1661 FILLER_18_65
*1662 FILLER_18_77
*1663 FILLER_18_89
*1664 FILLER_19_111
*1665 FILLER_19_123
*1666 FILLER_19_130
*1667 FILLER_19_142
*1668 FILLER_19_15
*1669 FILLER_19_154
*1670 FILLER_19_166
*1671 FILLER_19_173
*1672 FILLER_19_185
*1673 FILLER_19_197
*1674 FILLER_19_209
*1675 FILLER_19_216
*1676 FILLER_19_228
*1677 FILLER_19_240
*1678 FILLER_19_252
*1679 FILLER_19_259
*1680 FILLER_19_27
*1681 FILLER_19_271
*1682 FILLER_19_283
*1683 FILLER_19_295
*1684 FILLER_19_3
*1685 FILLER_19_302
*1686 FILLER_19_314
*1687 FILLER_19_326
*1688 FILLER_19_338
*1689 FILLER_19_345
*1690 FILLER_19_357
*1691 FILLER_19_369
*1692 FILLER_19_381
*1693 FILLER_19_388
*1694 FILLER_19_39
*1695 FILLER_19_400