*SPEF "ieee 1481-1999"
*DESIGN "macro_decap_12"
*DATE "11:11:11 Fri 11 11, 1111"
*VENDOR "OpenRCX"
*PROGRAM "Parallel Extraction"
*VERSION "1.0"
*DESIGN_FLOW "NAME_SCOPE LOCAL" "PIN_CAP NONE"
*DIVIDER /
*DELIMITER :
*BUS_DELIMITER []
*T_UNIT 1 NS
*C_UNIT 1 PF
*R_UNIT 1 OHM
*L_UNIT 1 HENRY

*NAME_MAP
*1 io_active
*2 io_in[0]
*3 io_in[10]
*4 io_in[11]
*5 io_in[12]
*6 io_in[13]
*7 io_in[14]
*8 io_in[15]
*9 io_in[16]
*10 io_in[17]
*11 io_in[18]
*12 io_in[19]
*13 io_in[1]
*14 io_in[20]
*15 io_in[21]
*16 io_in[22]
*17 io_in[23]
*18 io_in[24]
*19 io_in[25]
*20 io_in[26]
*21 io_in[27]
*22 io_in[28]
*23 io_in[29]
*24 io_in[2]
*25 io_in[30]
*26 io_in[31]
*27 io_in[32]
*28 io_in[33]
*29 io_in[34]
*30 io_in[35]
*31 io_in[36]
*32 io_in[37]
*33 io_in[3]
*34 io_in[4]
*35 io_in[5]
*36 io_in[6]
*37 io_in[7]
*38 io_in[8]
*39 io_in[9]
*40 net226
*41 net236
*42 net237
*43 net238
*44 net239
*45 net240
*46 net241
*47 net242
*48 net243
*49 net244
*50 net245
*51 net227
*52 net246
*53 net247
*54 net248
*55 net249
*56 net250
*57 net251
*58 net252
*59 net253
*60 net254
*61 net255
*62 net228
*63 net256
*64 net257
*65 net258
*66 net37
*67 net38
*68 net39
*69 net40
*70 net41
*71 net229
*72 net230
*73 net231
*74 net232
*75 net233
*76 net234
*77 net235
*78 io_out[0]
*79 io_out[10]
*80 io_out[11]
*81 io_out[12]
*82 io_out[13]
*83 io_out[14]
*84 io_out[15]
*85 io_out[16]
*86 io_out[17]
*87 net45
*88 net46
*89 net42
*90 net47
*91 net48
*92 net49
*93 net50
*94 net51
*95 net52
*96 net53
*97 net54
*98 net55
*99 net56
*100 net43
*101 net57
*102 net58
*103 net59
*104 net60
*105 net61
*106 net62
*107 net63
*108 net64
*109 net44
*110 io_out[4]
*111 io_out[5]
*112 io_out[6]
*113 io_out[7]
*114 io_out[8]
*115 io_out[9]
*116 la_data_in[0]
*117 la_data_in[100]
*118 la_data_in[101]
*119 la_data_in[102]
*120 la_data_in[103]
*121 la_data_in[104]
*122 la_data_in[105]
*123 la_data_in[106]
*124 la_data_in[107]
*125 la_data_in[108]
*126 la_data_in[109]
*127 la_data_in[10]
*128 la_data_in[110]
*129 la_data_in[111]
*130 la_data_in[112]
*131 la_data_in[113]
*132 la_data_in[114]
*133 la_data_in[115]
*134 la_data_in[116]
*135 la_data_in[117]
*136 la_data_in[118]
*137 la_data_in[119]
*138 la_data_in[11]
*139 la_data_in[120]
*140 la_data_in[121]
*141 la_data_in[122]
*142 la_data_in[123]
*143 la_data_in[124]
*144 la_data_in[125]
*145 la_data_in[126]
*146 la_data_in[127]
*147 la_data_in[12]
*148 la_data_in[13]
*149 la_data_in[14]
*150 la_data_in[15]
*151 la_data_in[16]
*152 la_data_in[17]
*153 la_data_in[18]
*154 la_data_in[19]
*155 la_data_in[1]
*156 la_data_in[20]
*157 la_data_in[21]
*158 la_data_in[22]
*159 la_data_in[23]
*160 la_data_in[24]
*161 la_data_in[25]
*162 la_data_in[26]
*163 la_data_in[27]
*164 la_data_in[28]
*165 la_data_in[29]
*166 la_data_in[2]
*167 la_data_in[30]
*168 la_data_in[31]
*169 la_data_in[32]
*170 la_data_in[33]
*171 la_data_in[34]
*172 la_data_in[35]
*173 la_data_in[36]
*174 la_data_in[37]
*175 la_data_in[38]
*176 la_data_in[39]
*177 la_data_in[3]
*178 la_data_in[40]
*179 la_data_in[41]
*180 la_data_in[42]
*181 la_data_in[43]
*182 la_data_in[44]
*183 la_data_in[45]
*184 la_data_in[46]
*185 la_data_in[47]
*186 la_data_in[48]
*187 la_data_in[49]
*188 la_data_in[4]
*189 la_data_in[50]
*190 la_data_in[51]
*191 la_data_in[52]
*192 la_data_in[53]
*193 la_data_in[54]
*194 la_data_in[55]
*195 la_data_in[56]
*196 la_data_in[57]
*197 la_data_in[58]
*198 la_data_in[59]
*199 la_data_in[5]
*200 la_data_in[60]
*201 la_data_in[61]
*202 la_data_in[62]
*203 la_data_in[63]
*204 la_data_in[64]
*205 la_data_in[65]
*206 la_data_in[66]
*207 la_data_in[67]
*208 la_data_in[68]
*209 la_data_in[69]
*210 la_data_in[6]
*211 la_data_in[70]
*212 la_data_in[71]
*213 la_data_in[72]
*214 la_data_in[73]
*215 la_data_in[74]
*216 la_data_in[75]
*217 la_data_in[76]
*218 la_data_in[77]
*219 la_data_in[78]
*220 la_data_in[79]
*221 la_data_in[7]
*222 la_data_in[80]
*223 la_data_in[81]
*224 la_data_in[82]
*225 la_data_in[83]
*226 la_data_in[84]
*227 la_data_in[85]
*228 la_data_in[86]
*229 la_data_in[87]
*230 la_data_in[88]
*231 la_data_in[89]
*232 la_data_in[8]
*233 la_data_in[90]
*234 la_data_in[91]
*235 la_data_in[92]
*236 la_data_in[93]
*237 la_data_in[94]
*238 la_data_in[95]
*239 la_data_in[96]
*240 la_data_in[97]
*241 la_data_in[98]
*242 la_data_in[99]
*243 la_data_in[9]
*244 net65
*245 net133
*246 net134
*247 net135
*248 net136
*249 net137
*250 net138
*251 net139
*252 net140
*253 net141
*254 net142
*255 net75
*256 net143
*257 net144
*258 net145
*259 net146
*260 net147
*261 net148
*262 net149
*263 net150
*264 net151
*265 net152
*266 net76
*267 net153
*268 net154
*269 net155
*270 net156
*271 net157
*272 net158
*273 net159
*274 net160
*275 net77
*276 net78
*277 net79
*278 net80
*279 net81
*280 net82
*281 net83
*282 net84
*283 net66
*284 net85
*285 net86
*286 net87
*287 net88
*288 net89
*289 net90
*290 net91
*291 net92
*292 net93
*293 net94
*294 net67
*295 net95
*296 net96
*297 la_data_out[32]
*298 la_data_out[33]
*299 la_data_out[34]
*300 la_data_out[35]
*301 la_data_out[36]
*302 la_data_out[37]
*303 la_data_out[38]
*304 la_data_out[39]
*305 net68
*306 la_data_out[40]
*307 la_data_out[41]
*308 la_data_out[42]
*309 la_data_out[43]
*310 la_data_out[44]
*311 la_data_out[45]
*312 la_data_out[46]
*313 la_data_out[47]
*314 la_data_out[48]
*315 la_data_out[49]
*316 net69
*317 la_data_out[50]
*318 la_data_out[51]
*319 la_data_out[52]
*320 la_data_out[53]
*321 la_data_out[54]
*322 la_data_out[55]
*323 la_data_out[56]
*324 la_data_out[57]
*325 la_data_out[58]
*326 la_data_out[59]
*327 net70
*328 la_data_out[60]
*329 la_data_out[61]
*330 la_data_out[62]
*331 la_data_out[63]
*332 net97
*333 net98
*334 net99
*335 net100
*336 net101
*337 net102
*338 net71
*339 net103
*340 net104
*341 net105
*342 net106
*343 net107
*344 net108
*345 net109
*346 net110
*347 net111
*348 net112
*349 net72
*350 net113
*351 net114
*352 net115
*353 net116
*354 net117
*355 net118
*356 net119
*357 net120
*358 net121
*359 net122
*360 net73
*361 net123
*362 net124
*363 net125
*364 net126
*365 net127
*366 net128
*367 net129
*368 net130
*369 net131
*370 net132
*371 net74
*372 la_oenb[0]
*373 la_oenb[100]
*374 la_oenb[101]
*375 la_oenb[102]
*376 la_oenb[103]
*377 la_oenb[104]
*378 la_oenb[105]
*379 la_oenb[106]
*380 la_oenb[107]
*381 la_oenb[108]
*382 la_oenb[109]
*383 la_oenb[10]
*384 la_oenb[110]
*385 la_oenb[111]
*386 la_oenb[112]
*387 la_oenb[113]
*388 la_oenb[114]
*389 la_oenb[115]
*390 la_oenb[116]
*391 la_oenb[117]
*392 la_oenb[118]
*393 la_oenb[119]
*394 la_oenb[11]
*395 la_oenb[120]
*396 la_oenb[121]
*397 la_oenb[122]
*398 la_oenb[123]
*399 la_oenb[124]
*400 la_oenb[125]
*401 la_oenb[126]
*402 la_oenb[127]
*403 la_oenb[12]
*404 la_oenb[13]
*405 la_oenb[14]
*406 la_oenb[15]
*407 la_oenb[16]
*408 la_oenb[17]
*409 la_oenb[18]
*410 la_oenb[19]
*411 la_oenb[1]
*412 la_oenb[20]
*413 la_oenb[21]
*414 la_oenb[22]
*415 la_oenb[23]
*416 la_oenb[24]
*417 la_oenb[25]
*418 la_oenb[26]
*419 la_oenb[27]
*420 la_oenb[28]
*421 la_oenb[29]
*422 la_oenb[2]
*423 la_oenb[30]
*424 la_oenb[31]
*425 la_oenb[32]
*426 la_oenb[33]
*427 la_oenb[34]
*428 la_oenb[35]
*429 la_oenb[36]
*430 la_oenb[37]
*431 la_oenb[38]
*432 la_oenb[39]
*433 la_oenb[3]
*434 la_oenb[40]
*435 la_oenb[41]
*436 la_oenb[42]
*437 la_oenb[43]
*438 la_oenb[44]
*439 la_oenb[45]
*440 la_oenb[46]
*441 la_oenb[47]
*442 la_oenb[48]
*443 la_oenb[49]
*444 la_oenb[4]
*445 la_oenb[50]
*446 la_oenb[51]
*447 la_oenb[52]
*448 la_oenb[53]
*449 la_oenb[54]
*450 la_oenb[55]
*451 la_oenb[56]
*452 la_oenb[57]
*453 la_oenb[58]
*454 la_oenb[59]
*455 la_oenb[5]
*456 la_oenb[60]
*457 la_oenb[61]
*458 la_oenb[62]
*459 la_oenb[63]
*460 la_oenb[64]
*461 la_oenb[65]
*462 la_oenb[66]
*463 la_oenb[67]
*464 la_oenb[68]
*465 la_oenb[69]
*466 la_oenb[6]
*467 la_oenb[70]
*468 la_oenb[71]
*469 la_oenb[72]
*470 la_oenb[73]
*471 la_oenb[74]
*472 la_oenb[75]
*473 la_oenb[76]
*474 la_oenb[77]
*475 la_oenb[78]
*476 la_oenb[79]
*477 la_oenb[7]
*478 la_oenb[80]
*479 la_oenb[81]
*480 la_oenb[82]
*481 la_oenb[83]
*482 la_oenb[84]
*483 la_oenb[85]
*484 la_oenb[86]
*485 la_oenb[87]
*486 la_oenb[88]
*487 la_oenb[89]
*488 la_oenb[8]
*489 la_oenb[90]
*490 la_oenb[91]
*491 la_oenb[92]
*492 la_oenb[93]
*493 la_oenb[94]
*494 la_oenb[95]
*495 la_oenb[96]
*496 la_oenb[97]
*497 la_oenb[98]
*498 la_oenb[99]
*499 la_oenb[9]
*502 wb_clk_i
*503 wb_rst_i
*504 net161
*505 wbs_adr_i[0]
*506 wbs_adr_i[10]
*507 wbs_adr_i[11]
*508 wbs_adr_i[12]
*509 wbs_adr_i[13]
*510 wbs_adr_i[14]
*511 wbs_adr_i[15]
*512 wbs_adr_i[16]
*513 wbs_adr_i[17]
*514 wbs_adr_i[18]
*515 wbs_adr_i[19]
*516 wbs_adr_i[1]
*517 wbs_adr_i[20]
*518 wbs_adr_i[21]
*519 wbs_adr_i[22]
*520 wbs_adr_i[23]
*521 wbs_adr_i[24]
*522 wbs_adr_i[25]
*523 wbs_adr_i[26]
*524 wbs_adr_i[27]
*525 wbs_adr_i[28]
*526 wbs_adr_i[29]
*527 wbs_adr_i[2]
*528 wbs_adr_i[30]
*529 wbs_adr_i[31]
*530 wbs_adr_i[3]
*531 wbs_adr_i[4]
*532 wbs_adr_i[5]
*533 wbs_adr_i[6]
*534 wbs_adr_i[7]
*535 wbs_adr_i[8]
*536 wbs_adr_i[9]
*537 wbs_cyc_i
*538 wbs_dat_i[0]
*539 wbs_dat_i[10]
*540 wbs_dat_i[11]
*541 wbs_dat_i[12]
*542 wbs_dat_i[13]
*543 wbs_dat_i[14]
*544 wbs_dat_i[15]
*545 wbs_dat_i[16]
*546 wbs_dat_i[17]
*547 wbs_dat_i[18]
*548 wbs_dat_i[19]
*549 wbs_dat_i[1]
*550 wbs_dat_i[20]
*551 wbs_dat_i[21]
*552 wbs_dat_i[22]
*553 wbs_dat_i[23]
*554 wbs_dat_i[24]
*555 wbs_dat_i[25]
*556 wbs_dat_i[26]
*557 wbs_dat_i[27]
*558 wbs_dat_i[28]
*559 wbs_dat_i[29]
*560 wbs_dat_i[2]
*561 wbs_dat_i[30]
*562 wbs_dat_i[31]
*563 wbs_dat_i[3]
*564 wbs_dat_i[4]
*565 wbs_dat_i[5]
*566 wbs_dat_i[6]
*567 wbs_dat_i[7]
*568 wbs_dat_i[8]
*569 wbs_dat_i[9]
*570 net162
*571 net172
*572 net173
*573 net174
*574 net175
*575 net176
*576 net177
*577 net178
*578 net179
*579 net180
*580 net181
*581 net163
*582 net182
*583 net183
*584 net184
*585 net185
*586 net186
*587 net187
*588 net188
*589 net189
*590 net190
*591 net191
*592 net164
*593 net192
*594 net193
*595 net165
*596 net166
*597 net167
*598 net168
*599 net169
*600 net170
*601 net171
*602 wbs_sel_i[0]
*603 wbs_sel_i[1]
*604 wbs_sel_i[2]
*605 wbs_sel_i[3]
*606 wbs_stb_i
*607 wbs_we_i
*608 _000_
*609 _001_
*610 _002_
*611 _003_
*612 _004_
*613 _005_
*614 _006_
*615 _007_
*616 _008_
*617 _009_
*618 _010_
*619 _011_
*620 _012_
*621 _013_
*622 _014_
*623 _015_
*624 _016_
*625 _017_
*626 _018_
*627 _019_
*628 _020_
*629 _021_
*630 _022_
*631 _023_
*632 _024_
*633 _025_
*634 _026_
*635 _027_
*636 _028_
*637 _029_
*638 _030_
*639 _031_
*640 _032_
*641 _033_
*642 _034_
*643 _035_
*644 _036_
*645 _037_
*646 _038_
*647 _039_
*648 _040_
*649 _041_
*650 _042_
*651 _043_
*652 _044_
*653 _045_
*654 _046_
*655 _047_
*656 _048_
*657 _049_
*658 _050_
*659 _051_
*660 _052_
*661 _053_
*662 _054_
*663 _055_
*664 _056_
*665 _057_
*666 _058_
*667 _059_
*668 _060_
*669 _061_
*670 _062_
*671 _063_
*672 _064_
*673 _065_
*674 _066_
*675 _067_
*676 _068_
*677 _069_
*678 _070_
*679 _071_
*680 _072_
*681 _073_
*682 _074_
*683 _075_
*684 _076_
*685 _077_
*686 _078_
*687 _079_
*688 _080_
*689 _081_
*690 _082_
*691 _083_
*692 _084_
*693 _085_
*694 _086_
*695 _087_
*696 _088_
*697 _089_
*698 _090_
*699 _091_
*700 _092_
*701 _093_
*702 _094_
*703 _095_
*704 _096_
*705 _097_
*706 _098_
*707 _099_
*708 _100_
*709 _101_
*710 _102_
*711 _103_
*712 _104_
*713 _105_
*714 _106_
*715 _107_
*716 _108_
*717 _109_
*718 _110_
*719 _111_
*720 _112_
*721 _113_
*722 _114_
*723 _115_
*724 _116_
*725 _117_
*726 _118_
*727 _119_
*728 _120_
*729 _121_
*730 _122_
*731 _123_
*732 _124_
*733 net1
*734 net10
*735 net11
*736 net12
*737 net13
*738 net14
*739 net15
*740 net16
*741 net17
*742 net18
*743 net19
*744 net194
*745 net195
*746 net196
*747 net197
*748 net198
*749 net199
*750 net2
*751 net20
*752 net200
*753 net201
*754 net202
*755 net203
*756 net204
*757 net205
*758 net206
*759 net207
*760 net208
*761 net209
*762 net21
*763 net210
*764 net211
*765 net212
*766 net213
*767 net214
*768 net215
*769 net216
*770 net217
*771 net218
*772 net219
*773 net22
*774 net220
*775 net221
*776 net222
*777 net223
*778 net224
*779 net225
*780 net23
*781 net24
*782 net25
*783 net26
*784 net27
*785 net28
*786 net29
*787 net3
*788 net30
*789 net31
*790 net32
*791 net33
*792 net34
*793 net35
*794 net36
*795 net4
*796 net5
*797 net6
*798 net7
*799 net8
*800 net9
*801 ANTENNA__157__A
*802 ANTENNA__158__A
*803 ANTENNA__159__A
*804 ANTENNA__170__A
*805 ANTENNA__181__A
*806 ANTENNA__192__A
*807 ANTENNA__193__A_N
*808 ANTENNA__193__B
*809 ANTENNA__211__B1
*810 ANTENNA__213__A_N
*811 ANTENNA__231__B1
*812 ANTENNA__235__B1
*813 ANTENNA__236__A
*814 ANTENNA__237__B2
*815 ANTENNA__239__A2
*816 ANTENNA__240__A
*817 ANTENNA__243__A2
*818 ANTENNA__244__A
*819 ANTENNA__246__A
*820 ANTENNA__251__A2
*821 ANTENNA__252__A2
*822 ANTENNA__253__A1
*823 ANTENNA__258__A1
*824 ANTENNA__259__A
*825 ANTENNA__261__A
*826 ANTENNA__264__A1
*827 ANTENNA__265__A
*828 ANTENNA__268__B1
*829 ANTENNA__269__A1
*830 ANTENNA__274__B1
*831 ANTENNA__275__A1
*832 ANTENNA__276__A
*833 ANTENNA__278__A
*834 ANTENNA__284__A
*835 ANTENNA__285__A2
*836 ANTENNA__286__A2
*837 ANTENNA__295__A1
*838 ANTENNA__295__C1
*839 ANTENNA_input10_A
*840 ANTENNA_input11_A
*841 ANTENNA_input12_A
*842 ANTENNA_input13_A
*843 ANTENNA_input14_A
*844 ANTENNA_input15_A
*845 ANTENNA_input16_A
*846 ANTENNA_input17_A
*847 ANTENNA_input18_A
*848 ANTENNA_input19_A
*849 ANTENNA_input1_A
*850 ANTENNA_input20_A
*851 ANTENNA_input21_A
*852 ANTENNA_input2_A
*853 ANTENNA_input3_A
*854 ANTENNA_input4_A
*855 ANTENNA_input5_A
*856 ANTENNA_input6_A
*857 ANTENNA_input7_A
*858 ANTENNA_input8_A
*859 ANTENNA_input9_A
*860 ANTENNA_output22_A
*861 ANTENNA_output31_A
*862 FILLER_0_103
*863 FILLER_0_110
*864 FILLER_0_113
*865 FILLER_0_124
*866 FILLER_0_131
*867 FILLER_0_138
*868 FILLER_0_141
*869 FILLER_0_15
*870 FILLER_0_152
*871 FILLER_0_159
*872 FILLER_0_166
*873 FILLER_0_169
*874 FILLER_0_180
*875 FILLER_0_187
*876 FILLER_0_194
*877 FILLER_0_197
*878 FILLER_0_208
*879 FILLER_0_215
*880 FILLER_0_222
*881 FILLER_0_225
*882 FILLER_0_236
*883 FILLER_0_243
*884 FILLER_0_250
*885 FILLER_0_253
*886 FILLER_0_264
*887 FILLER_0_27
*888 FILLER_0_271
*889 FILLER_0_278
*890 FILLER_0_281
*891 FILLER_0_29
*892 FILLER_0_3
*893 FILLER_0_306
*894 FILLER_0_309
*895 FILLER_0_332
*896 FILLER_0_337
*897 FILLER_0_362
*898 FILLER_0_365
*899 FILLER_0_370
*900 FILLER_0_377
*901 FILLER_0_384
*902 FILLER_0_393
*903 FILLER_0_398
*904 FILLER_0_405
*905 FILLER_0_41
*906 FILLER_0_412
*907 FILLER_0_421
*908 FILLER_0_426
*909 FILLER_0_433
*910 FILLER_0_440
*911 FILLER_0_449
*912 FILLER_0_454
*913 FILLER_0_461
*914 FILLER_0_468
*915 FILLER_0_477
*916 FILLER_0_482
*917 FILLER_0_489
*918 FILLER_0_496
*919 FILLER_0_505
*920 FILLER_0_510
*921 FILLER_0_517
*922 FILLER_0_524
*923 FILLER_0_53
*924 FILLER_0_533
*925 FILLER_0_538
*926 FILLER_0_545
*927 FILLER_0_55
*928 FILLER_0_552
*929 FILLER_0_561
*930 FILLER_0_566
*931 FILLER_0_57
*932 FILLER_0_573
*933 FILLER_0_580
*934 FILLER_0_589
*935 FILLER_0_601
*936 FILLER_0_613
*937 FILLER_0_615
*938 FILLER_0_617
*939 FILLER_0_68
*940 FILLER_0_75
*941 FILLER_0_82
*942 FILLER_0_85
*943 FILLER_0_96
*944 FILLER_100_105
*945 FILLER_100_107
*946 FILLER_100_110
*947 FILLER_100_117
*948 FILLER_100_129
*949 FILLER_100_137
*950 FILLER_100_139
*951 FILLER_100_141
*952 FILLER_100_143
*953 FILLER_100_147
*954 FILLER_100_15
*955 FILLER_100_159
*956 FILLER_100_171
*957 FILLER_100_173
*958 FILLER_100_177
*959 FILLER_100_189
*960 FILLER_100_193
*961 FILLER_100_195
*962 FILLER_100_197
*963 FILLER_100_201
*964 FILLER_100_203
*965 FILLER_100_207
*966 FILLER_100_215
*967 FILLER_100_220
*968 FILLER_100_228
*969 FILLER_100_232
*970 FILLER_100_234
*971 FILLER_100_238
*972 FILLER_100_250
*973 FILLER_100_253
*974 FILLER_100_257
*975 FILLER_100_259
*976 FILLER_100_268
*977 FILLER_100_27
*978 FILLER_100_276
*979 FILLER_100_280
*980 FILLER_100_29
*981 FILLER_100_291
*982 FILLER_100_295
*983 FILLER_100_297
*984 FILLER_100_3
*985 FILLER_100_306
*986 FILLER_100_309
*987 FILLER_100_320
*988 FILLER_100_324
*989 FILLER_100_329
*990 FILLER_100_341
*991 FILLER_100_351
*992 FILLER_100_361
*993 FILLER_100_363
*994 FILLER_100_365
*995 FILLER_100_37
*996 FILLER_100_377
*997 FILLER_100_381
*998 FILLER_100_392
*999 FILLER_100_400
*1000 FILLER_100_408
*1001 FILLER_100_416
*1002 FILLER_100_42
*1003 FILLER_100_421
*1004 FILLER_100_430
*1005 FILLER_100_442
*1006 FILLER_100_449
*1007 FILLER_100_455
*1008 FILLER_100_469
*1009 FILLER_100_473
*1010 FILLER_100_475
*1011 FILLER_100_477
*1012 FILLER_100_482
*1013 FILLER_100_489
*1014 FILLER_100_496
*1015 FILLER_100_50
*1016 FILLER_100_503
*1017 FILLER_100_510
*1018 FILLER_100_524
*1019 FILLER_100_530
*1020 FILLER_100_533
*1021 FILLER_100_538
*1022 FILLER_100_545
*1023 FILLER_100_55
*1024 FILLER_100_552
*1025 FILLER_100_559
*1026 FILLER_100_563
*1027 FILLER_100_567
*1028 FILLER_100_574
*1029 FILLER_100_580
*1030 FILLER_100_589
*1031 FILLER_100_594
*1032 FILLER_100_600
*1033 FILLER_100_612
*1034 FILLER_100_62
*1035 FILLER_100_624
*1036 FILLER_100_74
*1037 FILLER_100_82
*1038 FILLER_100_85
*1039 FILLER_100_97
*1040 FILLER_101_100
*1041 FILLER_101_108
*1042 FILLER_101_113
*1043 FILLER_101_117
*1044 FILLER_101_123
*1045 FILLER_101_130
*1046 FILLER_101_138
*1047 FILLER_101_141
*1048 FILLER_101_15
*1049 FILLER_101_153
*1050 FILLER_101_157
*1051 FILLER_101_162
*1052 FILLER_101_166
*1053 FILLER_101_169
*1054 FILLER_101_175
*1055 FILLER_101_183
*1056 FILLER_101_187
*1057 FILLER_101_192
*1058 FILLER_101_197
*1059 FILLER_101_203
*1060 FILLER_101_207
*1061 FILLER_101_213
*1062 FILLER_101_217
*1063 FILLER_101_222
*1064 FILLER_101_225
*1065 FILLER_101_23
*1066 FILLER_101_233
*1067 FILLER_101_241
*1068 FILLER_101_250
*1069 FILLER_101_253
*1070 FILLER_101_26
*1071 FILLER_101_260
*1072 FILLER_101_268
*1073 FILLER_101_273
*1074 FILLER_101_277
*1075 FILLER_101_279
*1076 FILLER_101_281
*1077 FILLER_101_283
*1078 FILLER_101_288
*1079 FILLER_101_29
*1080 FILLER_101_295
*1081 FILLER_101_3
*1082 FILLER_101_303
*1083 FILLER_101_307
*1084 FILLER_101_309
*1085 FILLER_101_313
*1086 FILLER_101_315
*1087 FILLER_101_319
*1088 FILLER_101_326
*1089 FILLER_101_334
*1090 FILLER_101_337
*1091 FILLER_101_349
*1092 FILLER_101_35
*1093 FILLER_101_359
*1094 FILLER_101_363
*1095 FILLER_101_365
*1096 FILLER_101_369
*1097 FILLER_101_375
*1098 FILLER_101_389
*1099 FILLER_101_391
*1100 FILLER_101_393
*1101 FILLER_101_405
*1102 FILLER_101_412
*1103 FILLER_101_418
*1104 FILLER_101_421
*1105 FILLER_101_43
*1106 FILLER_101_433
*1107 FILLER_101_443
*1108 FILLER_101_447
*1109 FILLER_101_449
*1110 FILLER_101_453
*1111 FILLER_101_464
*1112 FILLER_101_474
*1113 FILLER_101_477
*1114 FILLER_101_48
*1115 FILLER_101_481
*1116 FILLER_101_483
*1117 FILLER_101_488
*1118 FILLER_101_495
*1119 FILLER_101_502
*1120 FILLER_101_505
*1121 FILLER_101_517
*1122 FILLER_101_524
*1123 FILLER_101_530
*1124 FILLER_101_533
*1125 FILLER_101_54
*1126 FILLER_101_545
*1127 FILLER_101_553
*1128 FILLER_101_557
*1129 FILLER_101_559
*1130 FILLER_101_561
*1131 FILLER_101_569
*1132 FILLER_101_57
*1133 FILLER_101_573
*1134 FILLER_101_578
*1135 FILLER_101_585
*1136 FILLER_101_587
*1137 FILLER_101_589
*1138 FILLER_101_595
*1139 FILLER_101_602
*1140 FILLER_101_609
*1141 FILLER_101_613
*1142 FILLER_101_615
*1143 FILLER_101_617
*1144 FILLER_101_68
*1145 FILLER_101_75
*1146 FILLER_101_82
*1147 FILLER_101_85
*1148 FILLER_101_92
*1149 FILLER_101_96
*1150 FILLER_10_109
*1151 FILLER_10_121
*1152 FILLER_10_133
*1153 FILLER_10_137
*1154 FILLER_10_139
*1155 FILLER_10_141
*1156 FILLER_10_15
*1157 FILLER_10_153
*1158 FILLER_10_165
*1159 FILLER_10_177
*1160 FILLER_10_189
*1161 FILLER_10_193
*1162 FILLER_10_195
*1163 FILLER_10_197
*1164 FILLER_10_209
*1165 FILLER_10_221
*1166 FILLER_10_233
*1167 FILLER_10_245
*1168 FILLER_10_249
*1169 FILLER_10_251
*1170 FILLER_10_253
*1171 FILLER_10_265
*1172 FILLER_10_27
*1173 FILLER_10_277
*1174 FILLER_10_289
*1175 FILLER_10_29
*1176 FILLER_10_293
*1177 FILLER_10_3
*1178 FILLER_10_301
*1179 FILLER_10_306
*1180 FILLER_10_309
*1181 FILLER_10_314
*1182 FILLER_10_318
*1183 FILLER_10_322
*1184 FILLER_10_329
*1185 FILLER_10_341
*1186 FILLER_10_353
*1187 FILLER_10_361
*1188 FILLER_10_363
*1189 FILLER_10_365
*1190 FILLER_10_377
*1191 FILLER_10_389
*1192 FILLER_10_401
*1193 FILLER_10_41
*1194 FILLER_10_413
*1195 FILLER_10_417
*1196 FILLER_10_419
*1197 FILLER_10_421
*1198 FILLER_10_433
*1199 FILLER_10_445
*1200 FILLER_10_457
*1201 FILLER_10_469
*1202 FILLER_10_473
*1203 FILLER_10_475
*1204 FILLER_10_477
*1205 FILLER_10_489
*1206 FILLER_10_501
*1207 FILLER_10_513
*1208 FILLER_10_525
*1209 FILLER_10_529
*1210 FILLER_10_53
*1211 FILLER_10_531
*1212 FILLER_10_533
*1213 FILLER_10_545
*1214 FILLER_10_557
*1215 FILLER_10_569
*1216 FILLER_10_581
*1217 FILLER_10_585
*1218 FILLER_10_587
*1219 FILLER_10_589
*1220 FILLER_10_601
*1221 FILLER_10_613
*1222 FILLER_10_65
*1223 FILLER_10_77
*1224 FILLER_10_81
*1225 FILLER_10_83
*1226 FILLER_10_85
*1227 FILLER_10_97
*1228 FILLER_11_105
*1229 FILLER_11_109
*1230 FILLER_11_111
*1231 FILLER_11_113
*1232 FILLER_11_125
*1233 FILLER_11_137
*1234 FILLER_11_149
*1235 FILLER_11_15
*1236 FILLER_11_161
*1237 FILLER_11_165
*1238 FILLER_11_167
*1239 FILLER_11_169
*1240 FILLER_11_181
*1241 FILLER_11_193
*1242 FILLER_11_205
*1243 FILLER_11_217
*1244 FILLER_11_221
*1245 FILLER_11_223
*1246 FILLER_11_225
*1247 FILLER_11_237
*1248 FILLER_11_249
*1249 FILLER_11_261
*1250 FILLER_11_27
*1251 FILLER_11_273
*1252 FILLER_11_277
*1253 FILLER_11_279
*1254 FILLER_11_281
*1255 FILLER_11_293
*1256 FILLER_11_3
*1257 FILLER_11_305
*1258 FILLER_11_311
*1259 FILLER_11_322
*1260 FILLER_11_334
*1261 FILLER_11_337
*1262 FILLER_11_349
*1263 FILLER_11_361
*1264 FILLER_11_373
*1265 FILLER_11_385
*1266 FILLER_11_389
*1267 FILLER_11_39
*1268 FILLER_11_391
*1269 FILLER_11_393
*1270 FILLER_11_405
*1271 FILLER_11_417
*1272 FILLER_11_429
*1273 FILLER_11_441
*1274 FILLER_11_445
*1275 FILLER_11_447
*1276 FILLER_11_449
*1277 FILLER_11_461
*1278 FILLER_11_473
*1279 FILLER_11_485
*1280 FILLER_11_497
*1281 FILLER_11_501
*1282 FILLER_11_503
*1283 FILLER_11_505
*1284 FILLER_11_51
*1285 FILLER_11_517
*1286 FILLER_11_529
*1287 FILLER_11_541
*1288 FILLER_11_55
*1289 FILLER_11_553
*1290 FILLER_11_557
*1291 FILLER_11_559
*1292 FILLER_11_561
*1293 FILLER_11_57
*1294 FILLER_11_573
*1295 FILLER_11_585
*1296 FILLER_11_597
*1297 FILLER_11_609
*1298 FILLER_11_613
*1299 FILLER_11_615
*1300 FILLER_11_617
*1301 FILLER_11_69
*1302 FILLER_11_81
*1303 FILLER_11_93
*1304 FILLER_12_109
*1305 FILLER_12_121
*1306 FILLER_12_133
*1307 FILLER_12_137
*1308 FILLER_12_139
*1309 FILLER_12_141
*1310 FILLER_12_15
*1311 FILLER_12_153
*1312 FILLER_12_165
*1313 FILLER_12_177
*1314 FILLER_12_189
*1315 FILLER_12_193
*1316 FILLER_12_195
*1317 FILLER_12_197
*1318 FILLER_12_209
*1319 FILLER_12_221
*1320 FILLER_12_233
*1321 FILLER_12_245
*1322 FILLER_12_249
*1323 FILLER_12_251
*1324 FILLER_12_253
*1325 FILLER_12_265
*1326 FILLER_12_27
*1327 FILLER_12_277
*1328 FILLER_12_289
*1329 FILLER_12_29
*1330 FILLER_12_3
*1331 FILLER_12_301
*1332 FILLER_12_305
*1333 FILLER_12_307
*1334 FILLER_12_309
*1335 FILLER_12_321
*1336 FILLER_12_333
*1337 FILLER_12_345
*1338 FILLER_12_357
*1339 FILLER_12_361
*1340 FILLER_12_363
*1341 FILLER_12_365
*1342 FILLER_12_377
*1343 FILLER_12_389
*1344 FILLER_12_401
*1345 FILLER_12_41
*1346 FILLER_12_413
*1347 FILLER_12_417
*1348 FILLER_12_419
*1349 FILLER_12_421
*1350 FILLER_12_433
*1351 FILLER_12_445
*1352 FILLER_12_457
*1353 FILLER_12_469
*1354 FILLER_12_473
*1355 FILLER_12_475
*1356 FILLER_12_477
*1357 FILLER_12_489
*1358 FILLER_12_501
*1359 FILLER_12_513
*1360 FILLER_12_525
*1361 FILLER_12_529
*1362 FILLER_12_53
*1363 FILLER_12_531
*1364 FILLER_12_533
*1365 FILLER_12_545
*1366 FILLER_12_557
*1367 FILLER_12_569
*1368 FILLER_12_581
*1369 FILLER_12_585
*1370 FILLER_12_587
*1371 FILLER_12_589
*1372 FILLER_12_601
*1373 FILLER_12_613
*1374 FILLER_12_65
*1375 FILLER_12_77
*1376 FILLER_12_81
*1377 FILLER_12_83
*1378 FILLER_12_85
*1379 FILLER_12_97
*1380 FILLER_13_105
*1381 FILLER_13_109
*1382 FILLER_13_111
*1383 FILLER_13_113
*1384 FILLER_13_125
*1385 FILLER_13_137
*1386 FILLER_13_149
*1387 FILLER_13_15
*1388 FILLER_13_161
*1389 FILLER_13_165
*1390 FILLER_13_167
*1391 FILLER_13_169
*1392 FILLER_13_181
*1393 FILLER_13_193
*1394 FILLER_13_205
*1395 FILLER_13_217
*1396 FILLER_13_221
*1397 FILLER_13_223
*1398 FILLER_13_225
*1399 FILLER_13_237
*1400 FILLER_13_249
*1401 FILLER_13_261
*1402 FILLER_13_27
*1403 FILLER_13_273
*1404 FILLER_13_277
*1405 FILLER_13_279
*1406 FILLER_13_281
*1407 FILLER_13_293
*1408 FILLER_13_3
*1409 FILLER_13_305
*1410 FILLER_13_317
*1411 FILLER_13_329
*1412 FILLER_13_333
*1413 FILLER_13_335
*1414 FILLER_13_337
*1415 FILLER_13_349
*1416 FILLER_13_361
*1417 FILLER_13_373
*1418 FILLER_13_385
*1419 FILLER_13_389
*1420 FILLER_13_39
*1421 FILLER_13_391
*1422 FILLER_13_393
*1423 FILLER_13_405
*1424 FILLER_13_417
*1425 FILLER_13_429
*1426 FILLER_13_441
*1427 FILLER_13_445
*1428 FILLER_13_447
*1429 FILLER_13_449
*1430 FILLER_13_461
*1431 FILLER_13_473
*1432 FILLER_13_485
*1433 FILLER_13_497
*1434 FILLER_13_501
*1435 FILLER_13_503
*1436 FILLER_13_505
*1437 FILLER_13_51
*1438 FILLER_13_517
*1439 FILLER_13_529
*1440 FILLER_13_541
*1441 FILLER_13_55
*1442 FILLER_13_553
*1443 FILLER_13_557
*1444 FILLER_13_559
*1445 FILLER_13_561
*1446 FILLER_13_57
*1447 FILLER_13_573
*1448 FILLER_13_585
*1449 FILLER_13_597
*1450 FILLER_13_609
*1451 FILLER_13_613
*1452 FILLER_13_615
*1453 FILLER_13_617
*1454 FILLER_13_69
*1455 FILLER_13_81
*1456 FILLER_13_93
*1457 FILLER_14_109
*1458 FILLER_14_121
*1459 FILLER_14_133
*1460 FILLER_14_137
*1461 FILLER_14_139
*1462 FILLER_14_141
*1463 FILLER_14_15
*1464 FILLER_14_153
*1465 FILLER_14_165
*1466 FILLER_14_177
*1467 FILLER_14_189
*1468 FILLER_14_193
*1469 FILLER_14_195
*1470 FILLER_14_197
*1471 FILLER_14_209
*1472 FILLER_14_221
*1473 FILLER_14_233
*1474 FILLER_14_245
*1475 FILLER_14_249
*1476 FILLER_14_251
*1477 FILLER_14_253
*1478 FILLER_14_265
*1479 FILLER_14_27
*1480 FILLER_14_277
*1481 FILLER_14_289
*1482 FILLER_14_29
*1483 FILLER_14_3
*1484 FILLER_14_301
*1485 FILLER_14_305
*1486 FILLER_14_307
*1487 FILLER_14_309
*1488 FILLER_14_321
*1489 FILLER_14_333
*1490 FILLER_14_345
*1491 FILLER_14_357
*1492 FILLER_14_361
*1493 FILLER_14_363
*1494 FILLER_14_365
*1495 FILLER_14_377
*1496 FILLER_14_389
*1497 FILLER_14_401
*1498 FILLER_14_41
*1499 FILLER_14_413
*1500 FILLER_14_417
*1501 FILLER_14_419
*1502 FILLER_14_421
*1503 FILLER_14_433
*1504 FILLER_14_445
*1505 FILLER_14_457
*1506 FILLER_14_469
*1507 FILLER_14_473
*1508 FILLER_14_475
*1509 FILLER_14_477
*1510 FILLER_14_489
*1511 FILLER_14_501
*1512 FILLER_14_513
*1513 FILLER_14_525
*1514 FILLER_14_529
*1515 FILLER_14_53
*1516 FILLER_14_531
*1517 FILLER_14_533
*1518 FILLER_14_545
*1519 FILLER_14_557
*1520 FILLER_14_569
*1521 FILLER_14_581
*1522 FILLER_14_585
*1523 FILLER_14_587
*1524 FILLER_14_589
*1525 FILLER_14_601
*1526 FILLER_14_613
*1527 FILLER_14_65
*1528 FILLER_14_77
*1529 FILLER_14_81
*1530 FILLER_14_83
*1531 FILLER_14_85
*1532 FILLER_14_97
*1533 FILLER_15_105
*1534 FILLER_15_109
*1535 FILLER_15_111
*1536 FILLER_15_113
*1537 FILLER_15_125
*1538 FILLER_15_137
*1539 FILLER_15_149
*1540 FILLER_15_15
*1541 FILLER_15_161
*1542 FILLER_15_165
*1543 FILLER_15_167
*1544 FILLER_15_169
*1545 FILLER_15_181
*1546 FILLER_15_193
*1547 FILLER_15_205
*1548 FILLER_15_217
*1549 FILLER_15_221
*1550 FILLER_15_223
*1551 FILLER_15_225
*1552 FILLER_15_237
*1553 FILLER_15_249
*1554 FILLER_15_261
*1555 FILLER_15_27
*1556 FILLER_15_273
*1557 FILLER_15_277
*1558 FILLER_15_279
*1559 FILLER_15_281
*1560 FILLER_15_293
*1561 FILLER_15_3
*1562 FILLER_15_305
*1563 FILLER_15_317
*1564 FILLER_15_329
*1565 FILLER_15_333
*1566 FILLER_15_335
*1567 FILLER_15_337
*1568 FILLER_15_349
*1569 FILLER_15_361
*1570 FILLER_15_373
*1571 FILLER_15_385
*1572 FILLER_15_389
*1573 FILLER_15_39
*1574 FILLER_15_391
*1575 FILLER_15_393
*1576 FILLER_15_405
*1577 FILLER_15_417
*1578 FILLER_15_429
*1579 FILLER_15_441
*1580 FILLER_15_445
*1581 FILLER_15_447
*1582 FILLER_15_449
*1583 FILLER_15_461
*1584 FILLER_15_473
*1585 FILLER_15_485
*1586 FILLER_15_497
*1587 FILLER_15_501
*1588 FILLER_15_503
*1589 FILLER_15_505
*1590 FILLER_15_51
*1591 FILLER_15_517
*1592 FILLER_15_529
*1593 FILLER_15_541
*1594 FILLER_15_55
*1595 FILLER_15_553
*1596 FILLER_15_557
*1597 FILLER_15_559
*1598 FILLER_15_561
*1599 FILLER_15_57
*1600 FILLER_15_573
*1601 FILLER_15_585
*1602 FILLER_15_597
*1603 FILLER_15_609
*1604 FILLER_15_613
*1605 FILLER_15_615
*1606 FILLER_15_617
*1607 FILLER_15_69
*1608 FILLER_15_81
*1609 FILLER_15_93
*1610 FILLER_16_109
*1611 FILLER_16_121
*1612 FILLER_16_133
*1613 FILLER_16_137
*1614 FILLER_16_139
*1615 FILLER_16_141
*1616 FILLER_16_15
*1617 FILLER_16_153
*1618 FILLER_16_165
*1619 FILLER_16_177
*1620 FILLER_16_189
*1621 FILLER_16_193
*1622 FILLER_16_195
*1623 FILLER_16_197
*1624 FILLER_16_209
*1625 FILLER_16_221
*1626 FILLER_16_233
*1627 FILLER_16_245
*1628 FILLER_16_249
*1629 FILLER_16_251
*1630 FILLER_16_253
*1631 FILLER_16_265
*1632 FILLER_16_27
*1633 FILLER_16_277
*1634 FILLER_16_289
*1635 FILLER_16_29
*1636 FILLER_16_3
*1637 FILLER_16_301
*1638 FILLER_16_305
*1639 FILLER_16_307
*1640 FILLER_16_309
*1641 FILLER_16_321
*1642 FILLER_16_333
*1643 FILLER_16_345
*1644 FILLER_16_357
*1645 FILLER_16_361
*1646 FILLER_16_363
*1647 FILLER_16_365
*1648 FILLER_16_377
*1649 FILLER_16_389
*1650 FILLER_16_401
*1651 FILLER_16_41
*1652 FILLER_16_413
*1653 FILLER_16_417
*1654 FILLER_16_419
*1655 FILLER_16_421
*1656 FILLER_16_433
*1657 FILLER_16_445
*1658 FILLER_16_457
*1659 FILLER_16_469
*1660 FILLER_16_473
*1661 FILLER_16_475
*1662 FILLER_16_477
*1663 FILLER_16_489
*1664 FILLER_16_501
*1665 FILLER_16_513
*1666 FILLER_16_525
*1667 FILLER_16_529
*1668 FILLER_16_53
*1669 FILLER_16_531
*1670 FILLER_16_533
*1671 FILLER_16_545
*1672 FILLER_16_557
*1673 FILLER_16_569
*1674 FILLER_16_581
*1675 FILLER_16_585
*1676 FILLER_16_587
*1677 FILLER_16_589
*1678 FILLER_16_601
*1679 FILLER_16_613
*1680 FILLER_16_65
*1681 FILLER_16_77
*1682 FILLER_16_81
*1683 FILLER_16_83
*1684 FILLER_16_85
*1685 FILLER_16_97
*1686 FILLER_17_105
*1687 FILLER_17_109
*1688 FILLER_17_111
*1689 FILLER_17_113
*1690 FILLER_17_125
*1691 FILLER_17_137
*1692 FILLER_17_149
*1693 FILLER_17_15