*SPEF "ieee 1481-1999"
*DESIGN "macro_7"
*DATE "11:11:11 Fri 11 11, 1111"
*VENDOR "OpenRCX"
*PROGRAM "Parallel Extraction"
*VERSION "1.0"
*DESIGN_FLOW "NAME_SCOPE LOCAL" "PIN_CAP NONE"
*DIVIDER /
*DELIMITER :
*BUS_DELIMITER []
*T_UNIT 1 NS
*C_UNIT 1 PF
*R_UNIT 1 OHM
*L_UNIT 1 HENRY

*NAME_MAP
*1 io_active
*2 io_in[0]
*3 io_in[10]
*4 io_in[11]
*5 io_in[12]
*6 io_in[13]
*7 io_in[14]
*8 io_in[15]
*9 io_in[16]
*10 io_in[17]
*11 io_in[18]
*12 io_in[19]
*13 io_in[1]
*14 io_in[20]
*15 io_in[21]
*16 io_in[22]
*17 io_in[23]
*18 io_in[24]
*19 io_in[25]
*20 io_in[26]
*21 io_in[27]
*22 io_in[28]
*23 io_in[29]
*24 io_in[2]
*25 io_in[30]
*26 io_in[31]
*27 io_in[32]
*28 io_in[33]
*29 io_in[34]
*30 io_in[35]
*31 io_in[36]
*32 io_in[37]
*33 io_in[3]
*34 io_in[4]
*35 io_in[5]
*36 io_in[6]
*37 io_in[7]
*38 io_in[8]
*39 io_in[9]
*40 net226
*41 net236
*42 net237
*43 net238
*44 net239
*45 net240
*46 net241
*47 net242
*48 net243
*49 net244
*50 net245
*51 net227
*52 net246
*53 net247
*54 net248
*55 net249
*56 net250
*57 net251
*58 net252
*59 net253
*60 net254
*61 net255
*62 net228
*63 net256
*64 net257
*65 net258
*66 net37
*67 net38
*68 net39
*69 net40
*70 net41
*71 net229
*72 net230
*73 net231
*74 net232
*75 net233
*76 net234
*77 net235
*78 io_out[0]
*79 io_out[10]
*80 io_out[11]
*81 io_out[12]
*82 io_out[13]
*83 io_out[14]
*84 io_out[15]
*85 io_out[16]
*86 io_out[17]
*87 net45
*88 net46
*89 net42
*90 net47
*91 net48
*92 net49
*93 net50
*94 net51
*95 net52
*96 net53
*97 net54
*98 net55
*99 net56
*100 net43
*101 net57
*102 net58
*103 net59
*104 net60
*105 net61
*106 net62
*107 net63
*108 net64
*109 net44
*110 io_out[4]
*111 io_out[5]
*112 io_out[6]
*113 io_out[7]
*114 io_out[8]
*115 io_out[9]
*116 la_data_in[0]
*117 la_data_in[100]
*118 la_data_in[101]
*119 la_data_in[102]
*120 la_data_in[103]
*121 la_data_in[104]
*122 la_data_in[105]
*123 la_data_in[106]
*124 la_data_in[107]
*125 la_data_in[108]
*126 la_data_in[109]
*127 la_data_in[10]
*128 la_data_in[110]
*129 la_data_in[111]
*130 la_data_in[112]
*131 la_data_in[113]
*132 la_data_in[114]
*133 la_data_in[115]
*134 la_data_in[116]
*135 la_data_in[117]
*136 la_data_in[118]
*137 la_data_in[119]
*138 la_data_in[11]
*139 la_data_in[120]
*140 la_data_in[121]
*141 la_data_in[122]
*142 la_data_in[123]
*143 la_data_in[124]
*144 la_data_in[125]
*145 la_data_in[126]
*146 la_data_in[127]
*147 la_data_in[12]
*148 la_data_in[13]
*149 la_data_in[14]
*150 la_data_in[15]
*151 la_data_in[16]
*152 la_data_in[17]
*153 la_data_in[18]
*154 la_data_in[19]
*155 la_data_in[1]
*156 la_data_in[20]
*157 la_data_in[21]
*158 la_data_in[22]
*159 la_data_in[23]
*160 la_data_in[24]
*161 la_data_in[25]
*162 la_data_in[26]
*163 la_data_in[27]
*164 la_data_in[28]
*165 la_data_in[29]
*166 la_data_in[2]
*167 la_data_in[30]
*168 la_data_in[31]
*169 la_data_in[32]
*170 la_data_in[33]
*171 la_data_in[34]
*172 la_data_in[35]
*173 la_data_in[36]
*174 la_data_in[37]
*175 la_data_in[38]
*176 la_data_in[39]
*177 la_data_in[3]
*178 la_data_in[40]
*179 la_data_in[41]
*180 la_data_in[42]
*181 la_data_in[43]
*182 la_data_in[44]
*183 la_data_in[45]
*184 la_data_in[46]
*185 la_data_in[47]
*186 la_data_in[48]
*187 la_data_in[49]
*188 la_data_in[4]
*189 la_data_in[50]
*190 la_data_in[51]
*191 la_data_in[52]
*192 la_data_in[53]
*193 la_data_in[54]
*194 la_data_in[55]
*195 la_data_in[56]
*196 la_data_in[57]
*197 la_data_in[58]
*198 la_data_in[59]
*199 la_data_in[5]
*200 la_data_in[60]
*201 la_data_in[61]
*202 la_data_in[62]
*203 la_data_in[63]
*204 la_data_in[64]
*205 la_data_in[65]
*206 la_data_in[66]
*207 la_data_in[67]
*208 la_data_in[68]
*209 la_data_in[69]
*210 la_data_in[6]
*211 la_data_in[70]
*212 la_data_in[71]
*213 la_data_in[72]
*214 la_data_in[73]
*215 la_data_in[74]
*216 la_data_in[75]
*217 la_data_in[76]
*218 la_data_in[77]
*219 la_data_in[78]
*220 la_data_in[79]
*221 la_data_in[7]
*222 la_data_in[80]
*223 la_data_in[81]
*224 la_data_in[82]
*225 la_data_in[83]
*226 la_data_in[84]
*227 la_data_in[85]
*228 la_data_in[86]
*229 la_data_in[87]
*230 la_data_in[88]
*231 la_data_in[89]
*232 la_data_in[8]
*233 la_data_in[90]
*234 la_data_in[91]
*235 la_data_in[92]
*236 la_data_in[93]
*237 la_data_in[94]
*238 la_data_in[95]
*239 la_data_in[96]
*240 la_data_in[97]
*241 la_data_in[98]
*242 la_data_in[99]
*243 la_data_in[9]
*244 net65
*245 net133
*246 net134
*247 net135
*248 net136
*249 net137
*250 net138
*251 net139
*252 net140
*253 net141
*254 net142
*255 net75
*256 net143
*257 net144
*258 net145
*259 net146
*260 net147
*261 net148
*262 net149
*263 net150
*264 net151
*265 net152
*266 net76
*267 net153
*268 net154
*269 net155
*270 net156
*271 net157
*272 net158
*273 net159
*274 net160
*275 net77
*276 net78
*277 net79
*278 net80
*279 net81
*280 net82
*281 net83
*282 net84
*283 net66
*284 net85
*285 net86
*286 net87
*287 net88
*288 net89
*289 net90
*290 net91
*291 net92
*292 net93
*293 net94
*294 net67
*295 net95
*296 net96
*297 la_data_out[32]
*298 la_data_out[33]
*299 la_data_out[34]
*300 la_data_out[35]
*301 la_data_out[36]
*302 la_data_out[37]
*303 la_data_out[38]
*304 la_data_out[39]
*305 net68
*306 la_data_out[40]
*307 la_data_out[41]
*308 la_data_out[42]
*309 la_data_out[43]
*310 la_data_out[44]
*311 la_data_out[45]
*312 la_data_out[46]
*313 la_data_out[47]
*314 la_data_out[48]
*315 la_data_out[49]
*316 net69
*317 la_data_out[50]
*318 la_data_out[51]
*319 la_data_out[52]
*320 la_data_out[53]
*321 la_data_out[54]
*322 la_data_out[55]
*323 la_data_out[56]
*324 la_data_out[57]
*325 la_data_out[58]
*326 la_data_out[59]
*327 net70
*328 la_data_out[60]
*329 la_data_out[61]
*330 la_data_out[62]
*331 la_data_out[63]
*332 net97
*333 net98
*334 net99
*335 net100
*336 net101
*337 net102
*338 net71
*339 net103
*340 net104
*341 net105
*342 net106
*343 net107
*344 net108
*345 net109
*346 net110
*347 net111
*348 net112
*349 net72
*350 net113
*351 net114
*352 net115
*353 net116
*354 net117
*355 net118
*356 net119
*357 net120
*358 net121
*359 net122
*360 net73
*361 net123
*362 net124
*363 net125
*364 net126
*365 net127
*366 net128
*367 net129
*368 net130
*369 net131
*370 net132
*371 net74
*372 la_oenb[0]
*373 la_oenb[100]
*374 la_oenb[101]
*375 la_oenb[102]
*376 la_oenb[103]
*377 la_oenb[104]
*378 la_oenb[105]
*379 la_oenb[106]
*380 la_oenb[107]
*381 la_oenb[108]
*382 la_oenb[109]
*383 la_oenb[10]
*384 la_oenb[110]
*385 la_oenb[111]
*386 la_oenb[112]
*387 la_oenb[113]
*388 la_oenb[114]
*389 la_oenb[115]
*390 la_oenb[116]
*391 la_oenb[117]
*392 la_oenb[118]
*393 la_oenb[119]
*394 la_oenb[11]
*395 la_oenb[120]
*396 la_oenb[121]
*397 la_oenb[122]
*398 la_oenb[123]
*399 la_oenb[124]
*400 la_oenb[125]
*401 la_oenb[126]
*402 la_oenb[127]
*403 la_oenb[12]
*404 la_oenb[13]
*405 la_oenb[14]
*406 la_oenb[15]
*407 la_oenb[16]
*408 la_oenb[17]
*409 la_oenb[18]
*410 la_oenb[19]
*411 la_oenb[1]
*412 la_oenb[20]
*413 la_oenb[21]
*414 la_oenb[22]
*415 la_oenb[23]
*416 la_oenb[24]
*417 la_oenb[25]
*418 la_oenb[26]
*419 la_oenb[27]
*420 la_oenb[28]
*421 la_oenb[29]
*422 la_oenb[2]
*423 la_oenb[30]
*424 la_oenb[31]
*425 la_oenb[32]
*426 la_oenb[33]
*427 la_oenb[34]
*428 la_oenb[35]
*429 la_oenb[36]
*430 la_oenb[37]
*431 la_oenb[38]
*432 la_oenb[39]
*433 la_oenb[3]
*434 la_oenb[40]
*435 la_oenb[41]
*436 la_oenb[42]
*437 la_oenb[43]
*438 la_oenb[44]
*439 la_oenb[45]
*440 la_oenb[46]
*441 la_oenb[47]
*442 la_oenb[48]
*443 la_oenb[49]
*444 la_oenb[4]
*445 la_oenb[50]
*446 la_oenb[51]
*447 la_oenb[52]
*448 la_oenb[53]
*449 la_oenb[54]
*450 la_oenb[55]
*451 la_oenb[56]
*452 la_oenb[57]
*453 la_oenb[58]
*454 la_oenb[59]
*455 la_oenb[5]
*456 la_oenb[60]
*457 la_oenb[61]
*458 la_oenb[62]
*459 la_oenb[63]
*460 la_oenb[64]
*461 la_oenb[65]
*462 la_oenb[66]
*463 la_oenb[67]
*464 la_oenb[68]
*465 la_oenb[69]
*466 la_oenb[6]
*467 la_oenb[70]
*468 la_oenb[71]
*469 la_oenb[72]
*470 la_oenb[73]
*471 la_oenb[74]
*472 la_oenb[75]
*473 la_oenb[76]
*474 la_oenb[77]
*475 la_oenb[78]
*476 la_oenb[79]
*477 la_oenb[7]
*478 la_oenb[80]
*479 la_oenb[81]
*480 la_oenb[82]
*481 la_oenb[83]
*482 la_oenb[84]
*483 la_oenb[85]
*484 la_oenb[86]
*485 la_oenb[87]
*486 la_oenb[88]
*487 la_oenb[89]
*488 la_oenb[8]
*489 la_oenb[90]
*490 la_oenb[91]
*491 la_oenb[92]
*492 la_oenb[93]
*493 la_oenb[94]
*494 la_oenb[95]
*495 la_oenb[96]
*496 la_oenb[97]
*497 la_oenb[98]
*498 la_oenb[99]
*499 la_oenb[9]
*502 wb_clk_i
*503 wb_rst_i
*504 net161
*505 wbs_adr_i[0]
*506 wbs_adr_i[10]
*507 wbs_adr_i[11]
*508 wbs_adr_i[12]
*509 wbs_adr_i[13]
*510 wbs_adr_i[14]
*511 wbs_adr_i[15]
*512 wbs_adr_i[16]
*513 wbs_adr_i[17]
*514 wbs_adr_i[18]
*515 wbs_adr_i[19]
*516 wbs_adr_i[1]
*517 wbs_adr_i[20]
*518 wbs_adr_i[21]
*519 wbs_adr_i[22]
*520 wbs_adr_i[23]
*521 wbs_adr_i[24]
*522 wbs_adr_i[25]
*523 wbs_adr_i[26]
*524 wbs_adr_i[27]
*525 wbs_adr_i[28]
*526 wbs_adr_i[29]
*527 wbs_adr_i[2]
*528 wbs_adr_i[30]
*529 wbs_adr_i[31]
*530 wbs_adr_i[3]
*531 wbs_adr_i[4]
*532 wbs_adr_i[5]
*533 wbs_adr_i[6]
*534 wbs_adr_i[7]
*535 wbs_adr_i[8]
*536 wbs_adr_i[9]
*537 wbs_cyc_i
*538 wbs_dat_i[0]
*539 wbs_dat_i[10]
*540 wbs_dat_i[11]
*541 wbs_dat_i[12]
*542 wbs_dat_i[13]
*543 wbs_dat_i[14]
*544 wbs_dat_i[15]
*545 wbs_dat_i[16]
*546 wbs_dat_i[17]
*547 wbs_dat_i[18]
*548 wbs_dat_i[19]
*549 wbs_dat_i[1]
*550 wbs_dat_i[20]
*551 wbs_dat_i[21]
*552 wbs_dat_i[22]
*553 wbs_dat_i[23]
*554 wbs_dat_i[24]
*555 wbs_dat_i[25]
*556 wbs_dat_i[26]
*557 wbs_dat_i[27]
*558 wbs_dat_i[28]
*559 wbs_dat_i[29]
*560 wbs_dat_i[2]
*561 wbs_dat_i[30]
*562 wbs_dat_i[31]
*563 wbs_dat_i[3]
*564 wbs_dat_i[4]
*565 wbs_dat_i[5]
*566 wbs_dat_i[6]
*567 wbs_dat_i[7]
*568 wbs_dat_i[8]
*569 wbs_dat_i[9]
*570 net162
*571 net172
*572 net173
*573 net174
*574 net175
*575 net176
*576 net177
*577 net178
*578 net179
*579 net180
*580 net181
*581 net163
*582 net182
*583 net183
*584 net184
*585 net185
*586 net186
*587 net187
*588 net188
*589 net189
*590 net190
*591 net191
*592 net164
*593 net192
*594 net193
*595 net165
*596 net166
*597 net167
*598 net168
*599 net169
*600 net170
*601 net171
*602 wbs_sel_i[0]
*603 wbs_sel_i[1]
*604 wbs_sel_i[2]
*605 wbs_sel_i[3]
*606 wbs_stb_i
*607 wbs_we_i
*608 _000_
*609 _001_
*610 _002_
*611 _003_
*612 _004_
*613 _005_
*614 _006_
*615 _007_
*616 _008_
*617 _009_
*618 _010_
*619 _011_
*620 _012_
*621 _013_
*622 _014_
*623 _015_
*624 _016_
*625 _017_
*626 _018_
*627 _019_
*628 _020_
*629 _021_
*630 _022_
*631 _023_
*632 _024_
*633 _025_
*634 _026_
*635 _027_
*636 _028_
*637 _029_
*638 _030_
*639 _031_
*640 _032_
*641 _033_
*642 _034_
*643 _035_
*644 _036_
*645 _037_
*646 _038_
*647 _039_
*648 _040_
*649 _041_
*650 _042_
*651 _043_
*652 _044_
*653 _045_
*654 _046_
*655 _047_
*656 _048_
*657 _049_
*658 _050_
*659 _051_
*660 _052_
*661 _053_
*662 _054_
*663 _055_
*664 _056_
*665 _057_
*666 _058_
*667 _059_
*668 _060_
*669 _061_
*670 _062_
*671 _063_
*672 _064_
*673 _065_
*674 _066_
*675 _067_
*676 _068_
*677 _069_
*678 _070_
*679 _071_
*680 _072_
*681 _073_
*682 _074_
*683 _075_
*684 _076_
*685 _077_
*686 _078_
*687 _079_
*688 _080_
*689 _081_
*690 _082_
*691 _083_
*692 _084_
*693 _085_
*694 _086_
*695 _087_
*696 _088_
*697 _089_
*698 _090_
*699 _091_
*700 _092_
*701 _093_
*702 _094_
*703 _095_
*704 _096_
*705 _097_
*706 _098_
*707 _099_
*708 _100_
*709 _101_
*710 _102_
*711 _103_
*712 _104_
*713 _105_
*714 _106_
*715 _107_
*716 _108_
*717 _109_
*718 _110_
*719 _111_
*720 _112_
*721 _113_
*722 _114_
*723 _115_
*724 _116_
*725 _117_
*726 _118_
*727 _119_
*728 _120_
*729 _121_
*730 _122_
*731 _123_
*732 _124_
*733 net1
*734 net10
*735 net11
*736 net12
*737 net13
*738 net14
*739 net15
*740 net16
*741 net17
*742 net18
*743 net19
*744 net194
*745 net195
*746 net196
*747 net197
*748 net198
*749 net199
*750 net2
*751 net20
*752 net200
*753 net201
*754 net202
*755 net203
*756 net204
*757 net205
*758 net206
*759 net207
*760 net208
*761 net209
*762 net21
*763 net210
*764 net211
*765 net212
*766 net213
*767 net214
*768 net215
*769 net216
*770 net217
*771 net218
*772 net219
*773 net22
*774 net220
*775 net221
*776 net222
*777 net223
*778 net224
*779 net225
*780 net23
*781 net24
*782 net25
*783 net26
*784 net27
*785 net28
*786 net29
*787 net3
*788 net30
*789 net31
*790 net32
*791 net33
*792 net34
*793 net35
*794 net36
*795 net4
*796 net5
*797 net6
*798 net7
*799 net8
*800 net9
*801 ANTENNA__157__A
*802 ANTENNA__158__A
*803 ANTENNA__159__A
*804 ANTENNA__170__A
*805 ANTENNA__181__A
*806 ANTENNA__192__A
*807 ANTENNA__193__A_N
*808 ANTENNA__193__B
*809 ANTENNA__211__B1
*810 ANTENNA__213__A_N
*811 ANTENNA__231__B1
*812 ANTENNA__235__B1
*813 ANTENNA__236__A
*814 ANTENNA__237__B2
*815 ANTENNA__239__A2
*816 ANTENNA__240__A
*817 ANTENNA__243__A2
*818 ANTENNA__244__A
*819 ANTENNA__246__A
*820 ANTENNA__251__A2
*821 ANTENNA__252__A2
*822 ANTENNA__253__A1
*823 ANTENNA__258__A1
*824 ANTENNA__259__A
*825 ANTENNA__261__A
*826 ANTENNA__264__A1
*827 ANTENNA__265__A
*828 ANTENNA__268__B1
*829 ANTENNA__269__A1
*830 ANTENNA__274__B1
*831 ANTENNA__275__A1
*832 ANTENNA__276__A
*833 ANTENNA__278__A
*834 ANTENNA__284__A
*835 ANTENNA__285__A2
*836 ANTENNA__286__A2
*837 ANTENNA__295__A1
*838 ANTENNA__295__C1
*839 ANTENNA_input10_A
*840 ANTENNA_input11_A
*841 ANTENNA_input12_A
*842 ANTENNA_input13_A
*843 ANTENNA_input14_A
*844 ANTENNA_input15_A
*845 ANTENNA_input16_A
*846 ANTENNA_input17_A
*847 ANTENNA_input18_A
*848 ANTENNA_input19_A
*849 ANTENNA_input1_A
*850 ANTENNA_input20_A
*851 ANTENNA_input21_A
*852 ANTENNA_input2_A
*853 ANTENNA_input3_A
*854 ANTENNA_input4_A
*855 ANTENNA_input5_A
*856 ANTENNA_input6_A
*857 ANTENNA_input7_A
*858 ANTENNA_input8_A
*859 ANTENNA_input9_A
*860 ANTENNA_output22_A
*861 ANTENNA_output31_A
*862 FILLER_0_103
*863 FILLER_0_106
*864 FILLER_0_111
*865 FILLER_0_118
*866 FILLER_0_121
*867 FILLER_0_126
*868 FILLER_0_133
*869 FILLER_0_136
*870 FILLER_0_141
*871 FILLER_0_148
*872 FILLER_0_151
*873 FILLER_0_156
*874 FILLER_0_16
*875 FILLER_0_163
*876 FILLER_0_166
*877 FILLER_0_171
*878 FILLER_0_178
*879 FILLER_0_181
*880 FILLER_0_186
*881 FILLER_0_193
*882 FILLER_0_196
*883 FILLER_0_201
*884 FILLER_0_208
*885 FILLER_0_211
*886 FILLER_0_216
*887 FILLER_0_223
*888 FILLER_0_226
*889 FILLER_0_231
*890 FILLER_0_238
*891 FILLER_0_241
*892 FILLER_0_246
*893 FILLER_0_253
*894 FILLER_0_256
*895 FILLER_0_261
*896 FILLER_0_268
*897 FILLER_0_271
*898 FILLER_0_276
*899 FILLER_0_28
*900 FILLER_0_283
*901 FILLER_0_286
*902 FILLER_0_291
*903 FILLER_0_298
*904 FILLER_0_3
*905 FILLER_0_301
*906 FILLER_0_306
*907 FILLER_0_31
*908 FILLER_0_313
*909 FILLER_0_316
*910 FILLER_0_320
*911 FILLER_0_324
*912 FILLER_0_331
*913 FILLER_0_336
*914 FILLER_0_343
*915 FILLER_0_346
*916 FILLER_0_351
*917 FILLER_0_358
*918 FILLER_0_361
*919 FILLER_0_366
*920 FILLER_0_373
*921 FILLER_0_376
*922 FILLER_0_381
*923 FILLER_0_388
*924 FILLER_0_391
*925 FILLER_0_396
*926 FILLER_0_403
*927 FILLER_0_406
*928 FILLER_0_411
*929 FILLER_0_418
*930 FILLER_0_421
*931 FILLER_0_426
*932 FILLER_0_43
*933 FILLER_0_433
*934 FILLER_0_436
*935 FILLER_0_441
*936 FILLER_0_448
*937 FILLER_0_451
*938 FILLER_0_456
*939 FILLER_0_46
*940 FILLER_0_463
*941 FILLER_0_466
*942 FILLER_0_471
*943 FILLER_0_478
*944 FILLER_0_481
*945 FILLER_0_486
*946 FILLER_0_493
*947 FILLER_0_496
*948 FILLER_0_501
*949 FILLER_0_508
*950 FILLER_0_511
*951 FILLER_0_516
*952 FILLER_0_523
*953 FILLER_0_526
*954 FILLER_0_531
*955 FILLER_0_538
*956 FILLER_0_541
*957 FILLER_0_546
*958 FILLER_0_553
*959 FILLER_0_556
*960 FILLER_0_561
*961 FILLER_0_568
*962 FILLER_0_571
*963 FILLER_0_576
*964 FILLER_0_58
*965 FILLER_0_584
*966 FILLER_0_586
*967 FILLER_0_598
*968 FILLER_0_601
*969 FILLER_0_61
*970 FILLER_0_613
*971 FILLER_0_616
*972 FILLER_0_624
*973 FILLER_0_66
*974 FILLER_0_73
*975 FILLER_0_76
*976 FILLER_0_81
*977 FILLER_0_88
*978 FILLER_0_91
*979 FILLER_0_96
*980 FILLER_100_102
*981 FILLER_100_106
*982 FILLER_100_117
*983 FILLER_100_132
*984 FILLER_100_136
*985 FILLER_100_147
*986 FILLER_100_16
*987 FILLER_100_162
*988 FILLER_100_166
*989 FILLER_100_177
*990 FILLER_100_192
*991 FILLER_100_196
*992 FILLER_100_207
*993 FILLER_100_222
*994 FILLER_100_226
*995 FILLER_100_233
*996 FILLER_100_241
*997 FILLER_100_253
*998 FILLER_100_256
*999 FILLER_100_260
*1000 FILLER_100_269
*1001 FILLER_100_28
*1002 FILLER_100_283
*1003 FILLER_100_286
*1004 FILLER_100_295
*1005 FILLER_100_3
*1006 FILLER_100_303
*1007 FILLER_100_313
*1008 FILLER_100_316
*1009 FILLER_100_329
*1010 FILLER_100_341
*1011 FILLER_100_346
*1012 FILLER_100_356
*1013 FILLER_100_36
*1014 FILLER_100_366
*1015 FILLER_100_373
*1016 FILLER_100_376
*1017 FILLER_100_389
*1018 FILLER_100_399
*1019 FILLER_100_406
*1020 FILLER_100_415
*1021 FILLER_100_42
*1022 FILLER_100_421
*1023 FILLER_100_433
*1024 FILLER_100_436
*1025 FILLER_100_446
*1026 FILLER_100_456
*1027 FILLER_100_46
*1028 FILLER_100_463
*1029 FILLER_100_466
*1030 FILLER_100_478
*1031 FILLER_100_485
*1032 FILLER_100_492
*1033 FILLER_100_496
*1034 FILLER_100_501
*1035 FILLER_100_508
*1036 FILLER_100_515
*1037 FILLER_100_522
*1038 FILLER_100_526
*1039 FILLER_100_531
*1040 FILLER_100_538
*1041 FILLER_100_545
*1042 FILLER_100_55
*1043 FILLER_100_552
*1044 FILLER_100_556
*1045 FILLER_100_561
*1046 FILLER_100_568
*1047 FILLER_100_575
*1048 FILLER_100_582
*1049 FILLER_100_586
*1050 FILLER_100_591
*1051 FILLER_100_602
*1052 FILLER_100_614
*1053 FILLER_100_616
*1054 FILLER_100_62
*1055 FILLER_100_624
*1056 FILLER_100_74
*1057 FILLER_100_76
*1058 FILLER_100_87
*1059 FILLER_101_103
*1060 FILLER_101_106
*1061 FILLER_101_110
*1062 FILLER_101_118
*1063 FILLER_101_121
*1064 FILLER_101_133
*1065 FILLER_101_136
*1066 FILLER_101_148
*1067 FILLER_101_151
*1068 FILLER_101_16
*1069 FILLER_101_163
*1070 FILLER_101_166
*1071 FILLER_101_178
*1072 FILLER_101_181
*1073 FILLER_101_193
*1074 FILLER_101_196
*1075 FILLER_101_208
*1076 FILLER_101_211
*1077 FILLER_101_215
*1078 FILLER_101_223
*1079 FILLER_101_226
*1080 FILLER_101_230
*1081 FILLER_101_238
*1082 FILLER_101_24
*1083 FILLER_101_241
*1084 FILLER_101_247
*1085 FILLER_101_253
*1086 FILLER_101_256
*1087 FILLER_101_262
*1088 FILLER_101_268
*1089 FILLER_101_271
*1090 FILLER_101_277
*1091 FILLER_101_28
*1092 FILLER_101_283
*1093 FILLER_101_286
*1094 FILLER_101_292
*1095 FILLER_101_298
*1096 FILLER_101_3
*1097 FILLER_101_301
*1098 FILLER_101_307
*1099 FILLER_101_31
*1100 FILLER_101_313
*1101 FILLER_101_316
*1102 FILLER_101_322
*1103 FILLER_101_328
*1104 FILLER_101_331
*1105 FILLER_101_343
*1106 FILLER_101_346
*1107 FILLER_101_354
*1108 FILLER_101_361
*1109 FILLER_101_369
*1110 FILLER_101_37
*1111 FILLER_101_376
*1112 FILLER_101_388
*1113 FILLER_101_391
*1114 FILLER_101_403
*1115 FILLER_101_406
*1116 FILLER_101_418
*1117 FILLER_101_421
*1118 FILLER_101_430
*1119 FILLER_101_434
*1120 FILLER_101_436
*1121 FILLER_101_448
*1122 FILLER_101_451
*1123 FILLER_101_46
*1124 FILLER_101_463
*1125 FILLER_101_466
*1126 FILLER_101_474
*1127 FILLER_101_481
*1128 FILLER_101_488
*1129 FILLER_101_494
*1130 FILLER_101_496
*1131 FILLER_101_508
*1132 FILLER_101_511
*1133 FILLER_101_52
*1134 FILLER_101_523
*1135 FILLER_101_526
*1136 FILLER_101_538
*1137 FILLER_101_541
*1138 FILLER_101_548
*1139 FILLER_101_554
*1140 FILLER_101_556
*1141 FILLER_101_565
*1142 FILLER_101_569
*1143 FILLER_101_571
*1144 FILLER_101_578
*1145 FILLER_101_58
*1146 FILLER_101_584
*1147 FILLER_101_586
*1148 FILLER_101_593
*1149 FILLER_101_599
*1150 FILLER_101_601
*1151 FILLER_101_606
*1152 FILLER_101_61
*1153 FILLER_101_614
*1154 FILLER_101_616
*1155 FILLER_101_624
*1156 FILLER_101_72
*1157 FILLER_101_76
*1158 FILLER_101_81
*1159 FILLER_101_88
*1160 FILLER_101_91
*1161 FILLER_10_100
*1162 FILLER_10_104
*1163 FILLER_10_106
*1164 FILLER_10_118
*1165 FILLER_10_130
*1166 FILLER_10_134
*1167 FILLER_10_136
*1168 FILLER_10_148
*1169 FILLER_10_16
*1170 FILLER_10_160
*1171 FILLER_10_164
*1172 FILLER_10_166
*1173 FILLER_10_178
*1174 FILLER_10_190
*1175 FILLER_10_194
*1176 FILLER_10_196
*1177 FILLER_10_208
*1178 FILLER_10_220
*1179 FILLER_10_224
*1180 FILLER_10_226
*1181 FILLER_10_238
*1182 FILLER_10_250
*1183 FILLER_10_254
*1184 FILLER_10_256
*1185 FILLER_10_268
*1186 FILLER_10_28
*1187 FILLER_10_280
*1188 FILLER_10_284
*1189 FILLER_10_286
*1190 FILLER_10_298
*1191 FILLER_10_3
*1192 FILLER_10_306
*1193 FILLER_10_310
*1194 FILLER_10_314
*1195 FILLER_10_316
*1196 FILLER_10_320
*1197 FILLER_10_323
*1198 FILLER_10_333
*1199 FILLER_10_346
*1200 FILLER_10_358
*1201 FILLER_10_370
*1202 FILLER_10_374
*1203 FILLER_10_376
*1204 FILLER_10_388
*1205 FILLER_10_40
*1206 FILLER_10_400
*1207 FILLER_10_404
*1208 FILLER_10_406
*1209 FILLER_10_418
*1210 FILLER_10_430
*1211 FILLER_10_434
*1212 FILLER_10_436
*1213 FILLER_10_44
*1214 FILLER_10_448
*1215 FILLER_10_46
*1216 FILLER_10_460
*1217 FILLER_10_464
*1218 FILLER_10_466
*1219 FILLER_10_478
*1220 FILLER_10_490
*1221 FILLER_10_494
*1222 FILLER_10_496
*1223 FILLER_10_508
*1224 FILLER_10_520
*1225 FILLER_10_524
*1226 FILLER_10_526
*1227 FILLER_10_538
*1228 FILLER_10_550
*1229 FILLER_10_554
*1230 FILLER_10_556
*1231 FILLER_10_568
*1232 FILLER_10_58
*1233 FILLER_10_580
*1234 FILLER_10_584
*1235 FILLER_10_586
*1236 FILLER_10_598
*1237 FILLER_10_610
*1238 FILLER_10_614
*1239 FILLER_10_616
*1240 FILLER_10_624
*1241 FILLER_10_70
*1242 FILLER_10_74
*1243 FILLER_10_76
*1244 FILLER_10_88
*1245 FILLER_11_103
*1246 FILLER_11_115
*1247 FILLER_11_119
*1248 FILLER_11_121
*1249 FILLER_11_133
*1250 FILLER_11_145
*1251 FILLER_11_149
*1252 FILLER_11_15
*1253 FILLER_11_151
*1254 FILLER_11_163
*1255 FILLER_11_175
*1256 FILLER_11_179
*1257 FILLER_11_181
*1258 FILLER_11_193
*1259 FILLER_11_205
*1260 FILLER_11_209
*1261 FILLER_11_211
*1262 FILLER_11_223
*1263 FILLER_11_235
*1264 FILLER_11_239
*1265 FILLER_11_241
*1266 FILLER_11_253
*1267 FILLER_11_265
*1268 FILLER_11_269
*1269 FILLER_11_27
*1270 FILLER_11_271
*1271 FILLER_11_283
*1272 FILLER_11_295
*1273 FILLER_11_299
*1274 FILLER_11_3
*1275 FILLER_11_301
*1276 FILLER_11_31
*1277 FILLER_11_313
*1278 FILLER_11_325
*1279 FILLER_11_329
*1280 FILLER_11_331
*1281 FILLER_11_343
*1282 FILLER_11_355
*1283 FILLER_11_359
*1284 FILLER_11_361
*1285 FILLER_11_373
*1286 FILLER_11_385
*1287 FILLER_11_389
*1288 FILLER_11_391
*1289 FILLER_11_403
*1290 FILLER_11_415
*1291 FILLER_11_419
*1292 FILLER_11_421
*1293 FILLER_11_43
*1294 FILLER_11_433
*1295 FILLER_11_445
*1296 FILLER_11_449
*1297 FILLER_11_451
*1298 FILLER_11_463
*1299 FILLER_11_475
*1300 FILLER_11_479
*1301 FILLER_11_481
*1302 FILLER_11_493
*1303 FILLER_11_505
*1304 FILLER_11_509
*1305 FILLER_11_511
*1306 FILLER_11_523
*1307 FILLER_11_535
*1308 FILLER_11_539
*1309 FILLER_11_541
*1310 FILLER_11_55
*1311 FILLER_11_553
*1312 FILLER_11_565
*1313 FILLER_11_569
*1314 FILLER_11_571
*1315 FILLER_11_583
*1316 FILLER_11_59
*1317 FILLER_11_595
*1318 FILLER_11_599
*1319 FILLER_11_601
*1320 FILLER_11_61
*1321 FILLER_11_613
*1322 FILLER_11_73
*1323 FILLER_11_85
*1324 FILLER_11_89
*1325 FILLER_11_91
*1326 FILLER_12_100
*1327 FILLER_12_104
*1328 FILLER_12_106
*1329 FILLER_12_118
*1330 FILLER_12_130
*1331 FILLER_12_134
*1332 FILLER_12_136
*1333 FILLER_12_148
*1334 FILLER_12_16
*1335 FILLER_12_160
*1336 FILLER_12_164
*1337 FILLER_12_166
*1338 FILLER_12_178
*1339 FILLER_12_190
*1340 FILLER_12_194
*1341 FILLER_12_196
*1342 FILLER_12_208
*1343 FILLER_12_220
*1344 FILLER_12_224
*1345 FILLER_12_226
*1346 FILLER_12_238
*1347 FILLER_12_250
*1348 FILLER_12_254
*1349 FILLER_12_256
*1350 FILLER_12_268
*1351 FILLER_12_28
*1352 FILLER_12_280
*1353 FILLER_12_284
*1354 FILLER_12_286
*1355 FILLER_12_298
*1356 FILLER_12_3
*1357 FILLER_12_310
*1358 FILLER_12_314
*1359 FILLER_12_316
*1360 FILLER_12_328
*1361 FILLER_12_340
*1362 FILLER_12_344
*1363 FILLER_12_346
*1364 FILLER_12_358
*1365 FILLER_12_370
*1366 FILLER_12_374
*1367 FILLER_12_376
*1368 FILLER_12_388
*1369 FILLER_12_40
*1370 FILLER_12_400
*1371 FILLER_12_404
*1372 FILLER_12_406
*1373 FILLER_12_418
*1374 FILLER_12_430
*1375 FILLER_12_434
*1376 FILLER_12_436
*1377 FILLER_12_44
*1378 FILLER_12_448
*1379 FILLER_12_46
*1380 FILLER_12_460
*1381 FILLER_12_464
*1382 FILLER_12_466
*1383 FILLER_12_478
*1384 FILLER_12_490
*1385 FILLER_12_494
*1386 FILLER_12_496
*1387 FILLER_12_508
*1388 FILLER_12_520
*1389 FILLER_12_524
*1390 FILLER_12_526
*1391 FILLER_12_538
*1392 FILLER_12_550
*1393 FILLER_12_554
*1394 FILLER_12_556
*1395 FILLER_12_568
*1396 FILLER_12_58
*1397 FILLER_12_580
*1398 FILLER_12_584
*1399 FILLER_12_586
*1400 FILLER_12_598
*1401 FILLER_12_610
*1402 FILLER_12_614
*1403 FILLER_12_616
*1404 FILLER_12_624
*1405 FILLER_12_70
*1406 FILLER_12_74
*1407 FILLER_12_76
*1408 FILLER_12_88
*1409 FILLER_13_103
*1410 FILLER_13_115
*1411 FILLER_13_119
*1412 FILLER_13_121
*1413 FILLER_13_133
*1414 FILLER_13_145
*1415 FILLER_13_149
*1416 FILLER_13_15
*1417 FILLER_13_151
*1418 FILLER_13_163
*1419 FILLER_13_175
*1420 FILLER_13_179
*1421 FILLER_13_181
*1422 FILLER_13_193
*1423 FILLER_13_205
*1424 FILLER_13_209
*1425 FILLER_13_211
*1426 FILLER_13_223
*1427 FILLER_13_235
*1428 FILLER_13_239
*1429 FILLER_13_241
*1430 FILLER_13_253
*1431 FILLER_13_265
*1432 FILLER_13_269
*1433 FILLER_13_27
*1434 FILLER_13_271
*1435 FILLER_13_283
*1436 FILLER_13_295
*1437 FILLER_13_299
*1438 FILLER_13_3
*1439 FILLER_13_301
*1440 FILLER_13_31
*1441 FILLER_13_313
*1442 FILLER_13_325
*1443 FILLER_13_329
*1444 FILLER_13_331
*1445 FILLER_13_343
*1446 FILLER_13_355
*1447 FILLER_13_359
*1448 FILLER_13_361
*1449 FILLER_13_373
*1450 FILLER_13_385
*1451 FILLER_13_389
*1452 FILLER_13_391
*1453 FILLER_13_403
*1454 FILLER_13_415
*1455 FILLER_13_419
*1456 FILLER_13_421
*1457 FILLER_13_43
*1458 FILLER_13_433
*1459 FILLER_13_445
*1460 FILLER_13_449
*1461 FILLER_13_451
*1462 FILLER_13_463
*1463 FILLER_13_475
*1464 FILLER_13_479
*1465 FILLER_13_481
*1466 FILLER_13_493
*1467 FILLER_13_505
*1468 FILLER_13_509
*1469 FILLER_13_511
*1470 FILLER_13_523
*1471 FILLER_13_535
*1472 FILLER_13_539
*1473 FILLER_13_541
*1474 FILLER_13_55
*1475 FILLER_13_553
*1476 FILLER_13_565
*1477 FILLER_13_569
*1478 FILLER_13_571
*1479 FILLER_13_583
*1480 FILLER_13_59
*1481 FILLER_13_595
*1482 FILLER_13_599
*1483 FILLER_13_601
*1484 FILLER_13_61
*1485 FILLER_13_613
*1486 FILLER_13_73
*1487 FILLER_13_85
*1488 FILLER_13_89
*1489 FILLER_13_91
*1490 FILLER_14_100
*1491 FILLER_14_104
*1492 FILLER_14_106
*1493 FILLER_14_118
*1494 FILLER_14_130
*1495 FILLER_14_134
*1496 FILLER_14_136
*1497 FILLER_14_148
*1498 FILLER_14_16
*1499 FILLER_14_160
*1500 FILLER_14_164
*1501 FILLER_14_166
*1502 FILLER_14_178
*1503 FILLER_14_190
*1504 FILLER_14_194
*1505 FILLER_14_196
*1506 FILLER_14_208
*1507 FILLER_14_220
*1508 FILLER_14_224
*1509 FILLER_14_226
*1510 FILLER_14_238
*1511 FILLER_14_250
*1512 FILLER_14_254
*1513 FILLER_14_256
*1514 FILLER_14_268
*1515 FILLER_14_28
*1516 FILLER_14_280
*1517 FILLER_14_284
*1518 FILLER_14_286
*1519 FILLER_14_298
*1520 FILLER_14_3
*1521 FILLER_14_310
*1522 FILLER_14_314
*1523 FILLER_14_316
*1524 FILLER_14_328
*1525 FILLER_14_340
*1526 FILLER_14_344
*1527 FILLER_14_346
*1528 FILLER_14_358
*1529 FILLER_14_370
*1530 FILLER_14_374
*1531 FILLER_14_376
*1532 FILLER_14_388
*1533 FILLER_14_40
*1534 FILLER_14_400
*1535 FILLER_14_404
*1536 FILLER_14_406
*1537 FILLER_14_418
*1538 FILLER_14_430
*1539 FILLER_14_434
*1540 FILLER_14_436
*1541 FILLER_14_44
*1542 FILLER_14_448
*1543 FILLER_14_46
*1544 FILLER_14_460
*1545 FILLER_14_464
*1546 FILLER_14_466
*1547 FILLER_14_478
*1548 FILLER_14_490
*1549 FILLER_14_494
*1550 FILLER_14_496
*1551 FILLER_14_508
*1552 FILLER_14_520
*1553 FILLER_14_524
*1554 FILLER_14_526
*1555 FILLER_14_538
*1556 FILLER_14_550
*1557 FILLER_14_554
*1558 FILLER_14_556
*1559 FILLER_14_568
*1560 FILLER_14_58
*1561 FILLER_14_580
*1562 FILLER_14_584
*1563 FILLER_14_586
*1564 FILLER_14_598
*1565 FILLER_14_610
*1566 FILLER_14_614
*1567 FILLER_14_616
*1568 FILLER_14_624
*1569 FILLER_14_70
*1570 FILLER_14_74
*1571 FILLER_14_76
*1572 FILLER_14_88
*1573 FILLER_15_103
*1574 FILLER_15_115
*1575 FILLER_15_119
*1576 FILLER_15_121
*1577 FILLER_15_133
*1578 FILLER_15_145
*1579 FILLER_15_149
*1580 FILLER_15_15
*1581 FILLER_15_151
*1582 FILLER_15_163
*1583 FILLER_15_175
*1584 FILLER_15_179
*1585 FILLER_15_181
*1586 FILLER_15_193
*1587 FILLER_15_205
*1588 FILLER_15_209
*1589 FILLER_15_211
*1590 FILLER_15_223
*1591 FILLER_15_235
*1592 FILLER_15_239
*1593 FILLER_15_241
*1594 FILLER_15_253
*1595 FILLER_15_265
*1596 FILLER_15_269
*1597 FILLER_15_27
*1598 FILLER_15_271
*1599 FILLER_15_283
*1600 FILLER_15_295
*1601 FILLER_15_299
*1602 FILLER_15_3
*1603 FILLER_15_301
*1604 FILLER_15_31
*1605 FILLER_15_313
*1606 FILLER_15_325
*1607 FILLER_15_329
*1608 FILLER_15_331
*1609 FILLER_15_343
*1610 FILLER_15_355
*1611 FILLER_15_359
*1612 FILLER_15_361
*1613 FILLER_15_373
*1614 FILLER_15_385
*1615 FILLER_15_389
*1616 FILLER_15_391
*1617 FILLER_15_403
*1618 FILLER_15_415
*1619 FILLER_15_419
*1620 FILLER_15_421
*1621 FILLER_15_43
*1622 FILLER_15_433
*1623 FILLER_15_445
*1624 FILLER_15_449
*1625 FILLER_15_451
*1626 FILLER_15_463
*1627 FILLER_15_475
*1628 FILLER_15_479
*1629 FILLER_15_481
*1630 FILLER_15_493
*1631 FILLER_15_505
*1632 FILLER_15_509
*1633 FILLER_15_511
*1634 FILLER_15_523
*1635 FILLER_15_535
*1636 FILLER_15_539
*1637 FILLER_15_541
*1638 FILLER_15_55
*1639 FILLER_15_553
*1640 FILLER_15_565
*1641 FILLER_15_569
*1642 FILLER_15_571
*1643 FILLER_15_583
*1644 FILLER_15_59
*1645 FILLER_15_595
*1646 FILLER_15_599
*1647 FILLER_15_601
*1648 FILLER_15_61
*1649 FILLER_15_613
*1650 FILLER_15_73
*1651 FILLER_15_85
*1652 FILLER_15_89
*1653 FILLER_15_91
*1654 FILLER_16_100
*1655 FILLER_16_104
*1656 FILLER_16_106
*1657 FILLER_16_118
*1658 FILLER_16_130
*1659 FILLER_16_134
*1660 FILLER_16_136
*1661 FILLER_16_148
*1662 FILLER_16_16
*1663 FILLER_16_160
*1664 FILLER_16_164
*1665 FILLER_16_166
*1666 FILLER_16_178
*1667 FILLER_16_190
*1668 FILLER_16_194
*1669 FILLER_16_196
*1670 FILLER_16_208
*1671 FILLER_16_220
*1672 FILLER_16_224
*1673 FILLER_16_226
*1674 FILLER_16_238
*1675 FILLER_16_250
*1676 FILLER_16_254
*1677 FILLER_16_256
*1678 FILLER_16_268
*1679 FILLER_16_28
*1680 FILLER_16_280
*1681 FILLER_16_284
*1682 FILLER_16_286
*1683 FILLER_16_298
*1684 FILLER_16_3
*1685 FILLER_16_310
*1686 FILLER_16_314
*1687 FILLER_16_316
*1688 FILLER_16_328
*1689 FILLER_16_340
*1690 FILLER_16_344
*1691 FILLER_16_346
*1692 FILLER_16_358
*1693 FILLER_16_370
*1694 FILLER_16_374
*1695 FILLER_16_376
*1696 FILLER_16_388