*SPEF "ieee 1481-1999"
*DESIGN "macro_15"
*DATE "11:11:11 Fri 11 11, 1111"
*VENDOR "OpenRCX"
*PROGRAM "Parallel Extraction"
*VERSION "1.0"
*DESIGN_FLOW "NAME_SCOPE LOCAL" "PIN_CAP NONE"
*DIVIDER /
*DELIMITER :
*BUS_DELIMITER []
*T_UNIT 1 NS
*C_UNIT 1 PF
*R_UNIT 1 OHM
*L_UNIT 1 HENRY

*NAME_MAP
*1 io_active
*2 io_in[0]
*3 io_in[10]
*4 io_in[11]
*5 io_in[12]
*6 io_in[13]
*7 io_in[14]
*8 io_in[15]
*9 io_in[16]
*10 io_in[17]
*11 io_in[18]
*12 io_in[19]
*13 io_in[1]
*14 io_in[20]
*15 io_in[21]
*16 io_in[22]
*17 io_in[23]
*18 io_in[24]
*19 io_in[25]
*20 io_in[26]
*21 io_in[27]
*22 io_in[28]
*23 io_in[29]
*24 io_in[2]
*25 io_in[30]
*26 io_in[31]
*27 io_in[32]
*28 io_in[33]
*29 io_in[34]
*30 io_in[35]
*31 io_in[36]
*32 io_in[37]
*33 io_in[3]
*34 io_in[4]
*35 io_in[5]
*36 io_in[6]
*37 io_in[7]
*38 io_in[8]
*39 io_in[9]
*40 net226
*41 net236
*42 net237
*43 net238
*44 net239
*45 net240
*46 net241
*47 net242
*48 net243
*49 net244
*50 net245
*51 net227
*52 net246
*53 net247
*54 net248
*55 net249
*56 net250
*57 net251
*58 net252
*59 net253
*60 net254
*61 net255
*62 net228
*63 net256
*64 net257
*65 net258
*66 net37
*67 net38
*68 net39
*69 net40
*70 net41
*71 net229
*72 net230
*73 net231
*74 net232
*75 net233
*76 net234
*77 net235
*78 io_out[0]
*79 io_out[10]
*80 io_out[11]
*81 io_out[12]
*82 io_out[13]
*83 io_out[14]
*84 io_out[15]
*85 io_out[16]
*86 io_out[17]
*87 net45
*88 net46
*89 net42
*90 net47
*91 net48
*92 net49
*93 net50
*94 net51
*95 net52
*96 net53
*97 net54
*98 net55
*99 net56
*100 net43
*101 net57
*102 net58
*103 net59
*104 net60
*105 net61
*106 net62
*107 net63
*108 net64
*109 net44
*110 io_out[4]
*111 io_out[5]
*112 io_out[6]
*113 io_out[7]
*114 io_out[8]
*115 io_out[9]
*116 la_data_in[0]
*117 la_data_in[100]
*118 la_data_in[101]
*119 la_data_in[102]
*120 la_data_in[103]
*121 la_data_in[104]
*122 la_data_in[105]
*123 la_data_in[106]
*124 la_data_in[107]
*125 la_data_in[108]
*126 la_data_in[109]
*127 la_data_in[10]
*128 la_data_in[110]
*129 la_data_in[111]
*130 la_data_in[112]
*131 la_data_in[113]
*132 la_data_in[114]
*133 la_data_in[115]
*134 la_data_in[116]
*135 la_data_in[117]
*136 la_data_in[118]
*137 la_data_in[119]
*138 la_data_in[11]
*139 la_data_in[120]
*140 la_data_in[121]
*141 la_data_in[122]
*142 la_data_in[123]
*143 la_data_in[124]
*144 la_data_in[125]
*145 la_data_in[126]
*146 la_data_in[127]
*147 la_data_in[12]
*148 la_data_in[13]
*149 la_data_in[14]
*150 la_data_in[15]
*151 la_data_in[16]
*152 la_data_in[17]
*153 la_data_in[18]
*154 la_data_in[19]
*155 la_data_in[1]
*156 la_data_in[20]
*157 la_data_in[21]
*158 la_data_in[22]
*159 la_data_in[23]
*160 la_data_in[24]
*161 la_data_in[25]
*162 la_data_in[26]
*163 la_data_in[27]
*164 la_data_in[28]
*165 la_data_in[29]
*166 la_data_in[2]
*167 la_data_in[30]
*168 la_data_in[31]
*169 la_data_in[32]
*170 la_data_in[33]
*171 la_data_in[34]
*172 la_data_in[35]
*173 la_data_in[36]
*174 la_data_in[37]
*175 la_data_in[38]
*176 la_data_in[39]
*177 la_data_in[3]
*178 la_data_in[40]
*179 la_data_in[41]
*180 la_data_in[42]
*181 la_data_in[43]
*182 la_data_in[44]
*183 la_data_in[45]
*184 la_data_in[46]
*185 la_data_in[47]
*186 la_data_in[48]
*187 la_data_in[49]
*188 la_data_in[4]
*189 la_data_in[50]
*190 la_data_in[51]
*191 la_data_in[52]
*192 la_data_in[53]
*193 la_data_in[54]
*194 la_data_in[55]
*195 la_data_in[56]
*196 la_data_in[57]
*197 la_data_in[58]
*198 la_data_in[59]
*199 la_data_in[5]
*200 la_data_in[60]
*201 la_data_in[61]
*202 la_data_in[62]
*203 la_data_in[63]
*204 la_data_in[64]
*205 la_data_in[65]
*206 la_data_in[66]
*207 la_data_in[67]
*208 la_data_in[68]
*209 la_data_in[69]
*210 la_data_in[6]
*211 la_data_in[70]
*212 la_data_in[71]
*213 la_data_in[72]
*214 la_data_in[73]
*215 la_data_in[74]
*216 la_data_in[75]
*217 la_data_in[76]
*218 la_data_in[77]
*219 la_data_in[78]
*220 la_data_in[79]
*221 la_data_in[7]
*222 la_data_in[80]
*223 la_data_in[81]
*224 la_data_in[82]
*225 la_data_in[83]
*226 la_data_in[84]
*227 la_data_in[85]
*228 la_data_in[86]
*229 la_data_in[87]
*230 la_data_in[88]
*231 la_data_in[89]
*232 la_data_in[8]
*233 la_data_in[90]
*234 la_data_in[91]
*235 la_data_in[92]
*236 la_data_in[93]
*237 la_data_in[94]
*238 la_data_in[95]
*239 la_data_in[96]
*240 la_data_in[97]
*241 la_data_in[98]
*242 la_data_in[99]
*243 la_data_in[9]
*244 net65
*245 net133
*246 net134
*247 net135
*248 net136
*249 net137
*250 net138
*251 net139
*252 net140
*253 net141
*254 net142
*255 net75
*256 net143
*257 net144
*258 net145
*259 net146
*260 net147
*261 net148
*262 net149
*263 net150
*264 net151
*265 net152
*266 net76
*267 net153
*268 net154
*269 net155
*270 net156
*271 net157
*272 net158
*273 net159
*274 net160
*275 net77
*276 net78
*277 net79
*278 net80
*279 net81
*280 net82
*281 net83
*282 net84
*283 net66
*284 net85
*285 net86
*286 net87
*287 net88
*288 net89
*289 net90
*290 net91
*291 net92
*292 net93
*293 net94
*294 net67
*295 net95
*296 net96
*297 la_data_out[32]
*298 la_data_out[33]
*299 la_data_out[34]
*300 la_data_out[35]
*301 la_data_out[36]
*302 la_data_out[37]
*303 la_data_out[38]
*304 la_data_out[39]
*305 net68
*306 la_data_out[40]
*307 la_data_out[41]
*308 la_data_out[42]
*309 la_data_out[43]
*310 la_data_out[44]
*311 la_data_out[45]
*312 la_data_out[46]
*313 la_data_out[47]
*314 la_data_out[48]
*315 la_data_out[49]
*316 net69
*317 la_data_out[50]
*318 la_data_out[51]
*319 la_data_out[52]
*320 la_data_out[53]
*321 la_data_out[54]
*322 la_data_out[55]
*323 la_data_out[56]
*324 la_data_out[57]
*325 la_data_out[58]
*326 la_data_out[59]
*327 net70
*328 la_data_out[60]
*329 la_data_out[61]
*330 la_data_out[62]
*331 la_data_out[63]
*332 net97
*333 net98
*334 net99
*335 net100
*336 net101
*337 net102
*338 net71
*339 net103
*340 net104
*341 net105
*342 net106
*343 net107
*344 net108
*345 net109
*346 net110
*347 net111
*348 net112
*349 net72
*350 net113
*351 net114
*352 net115
*353 net116
*354 net117
*355 net118
*356 net119
*357 net120
*358 net121
*359 net122
*360 net73
*361 net123
*362 net124
*363 net125
*364 net126
*365 net127
*366 net128
*367 net129
*368 net130
*369 net131
*370 net132
*371 net74
*372 la_oenb[0]
*373 la_oenb[100]
*374 la_oenb[101]
*375 la_oenb[102]
*376 la_oenb[103]
*377 la_oenb[104]
*378 la_oenb[105]
*379 la_oenb[106]
*380 la_oenb[107]
*381 la_oenb[108]
*382 la_oenb[109]
*383 la_oenb[10]
*384 la_oenb[110]
*385 la_oenb[111]
*386 la_oenb[112]
*387 la_oenb[113]
*388 la_oenb[114]
*389 la_oenb[115]
*390 la_oenb[116]
*391 la_oenb[117]
*392 la_oenb[118]
*393 la_oenb[119]
*394 la_oenb[11]
*395 la_oenb[120]
*396 la_oenb[121]
*397 la_oenb[122]
*398 la_oenb[123]
*399 la_oenb[124]
*400 la_oenb[125]
*401 la_oenb[126]
*402 la_oenb[127]
*403 la_oenb[12]
*404 la_oenb[13]
*405 la_oenb[14]
*406 la_oenb[15]
*407 la_oenb[16]
*408 la_oenb[17]
*409 la_oenb[18]
*410 la_oenb[19]
*411 la_oenb[1]
*412 la_oenb[20]
*413 la_oenb[21]
*414 la_oenb[22]
*415 la_oenb[23]
*416 la_oenb[24]
*417 la_oenb[25]
*418 la_oenb[26]
*419 la_oenb[27]
*420 la_oenb[28]
*421 la_oenb[29]
*422 la_oenb[2]
*423 la_oenb[30]
*424 la_oenb[31]
*425 la_oenb[32]
*426 la_oenb[33]
*427 la_oenb[34]
*428 la_oenb[35]
*429 la_oenb[36]
*430 la_oenb[37]
*431 la_oenb[38]
*432 la_oenb[39]
*433 la_oenb[3]
*434 la_oenb[40]
*435 la_oenb[41]
*436 la_oenb[42]
*437 la_oenb[43]
*438 la_oenb[44]
*439 la_oenb[45]
*440 la_oenb[46]
*441 la_oenb[47]
*442 la_oenb[48]
*443 la_oenb[49]
*444 la_oenb[4]
*445 la_oenb[50]
*446 la_oenb[51]
*447 la_oenb[52]
*448 la_oenb[53]
*449 la_oenb[54]
*450 la_oenb[55]
*451 la_oenb[56]
*452 la_oenb[57]
*453 la_oenb[58]
*454 la_oenb[59]
*455 la_oenb[5]
*456 la_oenb[60]
*457 la_oenb[61]
*458 la_oenb[62]
*459 la_oenb[63]
*460 la_oenb[64]
*461 la_oenb[65]
*462 la_oenb[66]
*463 la_oenb[67]
*464 la_oenb[68]
*465 la_oenb[69]
*466 la_oenb[6]
*467 la_oenb[70]
*468 la_oenb[71]
*469 la_oenb[72]
*470 la_oenb[73]
*471 la_oenb[74]
*472 la_oenb[75]
*473 la_oenb[76]
*474 la_oenb[77]
*475 la_oenb[78]
*476 la_oenb[79]
*477 la_oenb[7]
*478 la_oenb[80]
*479 la_oenb[81]
*480 la_oenb[82]
*481 la_oenb[83]
*482 la_oenb[84]
*483 la_oenb[85]
*484 la_oenb[86]
*485 la_oenb[87]
*486 la_oenb[88]
*487 la_oenb[89]
*488 la_oenb[8]
*489 la_oenb[90]
*490 la_oenb[91]
*491 la_oenb[92]
*492 la_oenb[93]
*493 la_oenb[94]
*494 la_oenb[95]
*495 la_oenb[96]
*496 la_oenb[97]
*497 la_oenb[98]
*498 la_oenb[99]
*499 la_oenb[9]
*502 wb_clk_i
*503 wb_rst_i
*504 net161
*505 wbs_adr_i[0]
*506 wbs_adr_i[10]
*507 wbs_adr_i[11]
*508 wbs_adr_i[12]
*509 wbs_adr_i[13]
*510 wbs_adr_i[14]
*511 wbs_adr_i[15]
*512 wbs_adr_i[16]
*513 wbs_adr_i[17]
*514 wbs_adr_i[18]
*515 wbs_adr_i[19]
*516 wbs_adr_i[1]
*517 wbs_adr_i[20]
*518 wbs_adr_i[21]
*519 wbs_adr_i[22]
*520 wbs_adr_i[23]
*521 wbs_adr_i[24]
*522 wbs_adr_i[25]
*523 wbs_adr_i[26]
*524 wbs_adr_i[27]
*525 wbs_adr_i[28]
*526 wbs_adr_i[29]
*527 wbs_adr_i[2]
*528 wbs_adr_i[30]
*529 wbs_adr_i[31]
*530 wbs_adr_i[3]
*531 wbs_adr_i[4]
*532 wbs_adr_i[5]
*533 wbs_adr_i[6]
*534 wbs_adr_i[7]
*535 wbs_adr_i[8]
*536 wbs_adr_i[9]
*537 wbs_cyc_i
*538 wbs_dat_i[0]
*539 wbs_dat_i[10]
*540 wbs_dat_i[11]
*541 wbs_dat_i[12]
*542 wbs_dat_i[13]
*543 wbs_dat_i[14]
*544 wbs_dat_i[15]
*545 wbs_dat_i[16]
*546 wbs_dat_i[17]
*547 wbs_dat_i[18]
*548 wbs_dat_i[19]
*549 wbs_dat_i[1]
*550 wbs_dat_i[20]
*551 wbs_dat_i[21]
*552 wbs_dat_i[22]
*553 wbs_dat_i[23]
*554 wbs_dat_i[24]
*555 wbs_dat_i[25]
*556 wbs_dat_i[26]
*557 wbs_dat_i[27]
*558 wbs_dat_i[28]
*559 wbs_dat_i[29]
*560 wbs_dat_i[2]
*561 wbs_dat_i[30]
*562 wbs_dat_i[31]
*563 wbs_dat_i[3]
*564 wbs_dat_i[4]
*565 wbs_dat_i[5]
*566 wbs_dat_i[6]
*567 wbs_dat_i[7]
*568 wbs_dat_i[8]
*569 wbs_dat_i[9]
*570 net162
*571 net172
*572 net173
*573 net174
*574 net175
*575 net176
*576 net177
*577 net178
*578 net179
*579 net180
*580 net181
*581 net163
*582 net182
*583 net183
*584 net184
*585 net185
*586 net186
*587 net187
*588 net188
*589 net189
*590 net190
*591 net191
*592 net164
*593 net192
*594 net193
*595 net165
*596 net166
*597 net167
*598 net168
*599 net169
*600 net170
*601 net171
*602 wbs_sel_i[0]
*603 wbs_sel_i[1]
*604 wbs_sel_i[2]
*605 wbs_sel_i[3]
*606 wbs_stb_i
*607 wbs_we_i
*608 _000_
*609 _001_
*610 _002_
*611 _003_
*612 _004_
*613 _005_
*614 _006_
*615 _007_
*616 _008_
*617 _009_
*618 _010_
*619 _011_
*620 _012_
*621 _013_
*622 _014_
*623 _015_
*624 _016_
*625 _017_
*626 _018_
*627 _019_
*628 _020_
*629 _021_
*630 _022_
*631 _023_
*632 _024_
*633 _025_
*634 _026_
*635 _027_
*636 _028_
*637 _029_
*638 _030_
*639 _031_
*640 _032_
*641 _033_
*642 _034_
*643 _035_
*644 _036_
*645 _037_
*646 _038_
*647 _039_
*648 _040_
*649 _041_
*650 _042_
*651 _043_
*652 _044_
*653 _045_
*654 _046_
*655 _047_
*656 _048_
*657 _049_
*658 _050_
*659 _051_
*660 _052_
*661 _053_
*662 _054_
*663 _055_
*664 _056_
*665 _057_
*666 _058_
*667 _059_
*668 _060_
*669 _061_
*670 _062_
*671 _063_
*672 _064_
*673 _065_
*674 _066_
*675 _067_
*676 _068_
*677 _069_
*678 _070_
*679 _071_
*680 _072_
*681 _073_
*682 _074_
*683 _075_
*684 _076_
*685 _077_
*686 _078_
*687 _079_
*688 _080_
*689 _081_
*690 _082_
*691 _083_
*692 _084_
*693 _085_
*694 _086_
*695 _087_
*696 _088_
*697 _089_
*698 _090_
*699 _091_
*700 _092_
*701 _093_
*702 _094_
*703 _095_
*704 _096_
*705 _097_
*706 _098_
*707 _099_
*708 _100_
*709 _101_
*710 _102_
*711 _103_
*712 _104_
*713 _105_
*714 _106_
*715 _107_
*716 _108_
*717 _109_
*718 _110_
*719 _111_
*720 _112_
*721 _113_
*722 _114_
*723 _115_
*724 _116_
*725 _117_
*726 _118_
*727 _119_
*728 _120_
*729 _121_
*730 _122_
*731 _123_
*732 _124_
*733 net1
*734 net10
*735 net11
*736 net12
*737 net13
*738 net14
*739 net15
*740 net16
*741 net17
*742 net18
*743 net19
*744 net194
*745 net195
*746 net196
*747 net197
*748 net198
*749 net199
*750 net2
*751 net20
*752 net200
*753 net201
*754 net202
*755 net203
*756 net204
*757 net205
*758 net206
*759 net207
*760 net208
*761 net209
*762 net21
*763 net210
*764 net211
*765 net212
*766 net213
*767 net214
*768 net215
*769 net216
*770 net217
*771 net218
*772 net219
*773 net22
*774 net220
*775 net221
*776 net222
*777 net223
*778 net224
*779 net225
*780 net23
*781 net24
*782 net25
*783 net26
*784 net27
*785 net28
*786 net29
*787 net3
*788 net30
*789 net31
*790 net32
*791 net33
*792 net34
*793 net35
*794 net36
*795 net4
*796 net5
*797 net6
*798 net7
*799 net8
*800 net9
*801 ANTENNA__157__A
*802 ANTENNA__158__A
*803 ANTENNA__159__A
*804 ANTENNA__170__A
*805 ANTENNA__181__A
*806 ANTENNA__192__A
*807 ANTENNA__193__A_N
*808 ANTENNA__193__B
*809 ANTENNA__211__B1
*810 ANTENNA__213__A_N
*811 ANTENNA__231__B1
*812 ANTENNA__235__B1
*813 ANTENNA__236__A
*814 ANTENNA__237__B2
*815 ANTENNA__239__A2
*816 ANTENNA__240__A
*817 ANTENNA__243__A2
*818 ANTENNA__244__A
*819 ANTENNA__246__A
*820 ANTENNA__251__A2
*821 ANTENNA__252__A2
*822 ANTENNA__253__A1
*823 ANTENNA__258__A1
*824 ANTENNA__259__A
*825 ANTENNA__261__A
*826 ANTENNA__264__A1
*827 ANTENNA__265__A
*828 ANTENNA__268__B1
*829 ANTENNA__269__A1
*830 ANTENNA__274__B1
*831 ANTENNA__275__A1
*832 ANTENNA__276__A
*833 ANTENNA__278__A
*834 ANTENNA__284__A
*835 ANTENNA__285__A2
*836 ANTENNA__286__A2
*837 ANTENNA__295__A1
*838 ANTENNA__295__C1
*839 ANTENNA_input10_A
*840 ANTENNA_input11_A
*841 ANTENNA_input12_A
*842 ANTENNA_input13_A
*843 ANTENNA_input14_A
*844 ANTENNA_input15_A
*845 ANTENNA_input16_A
*846 ANTENNA_input17_A
*847 ANTENNA_input18_A
*848 ANTENNA_input19_A
*849 ANTENNA_input1_A
*850 ANTENNA_input20_A
*851 ANTENNA_input21_A
*852 ANTENNA_input2_A
*853 ANTENNA_input3_A
*854 ANTENNA_input4_A
*855 ANTENNA_input5_A
*856 ANTENNA_input6_A
*857 ANTENNA_input7_A
*858 ANTENNA_input8_A
*859 ANTENNA_input9_A
*860 ANTENNA_output22_A
*861 ANTENNA_output31_A
*862 FILLER_0_101
*863 FILLER_0_105
*864 FILLER_0_112
*865 FILLER_0_119
*866 FILLER_0_126
*867 FILLER_0_129
*868 FILLER_0_133
*869 FILLER_0_137
*870 FILLER_0_144
*871 FILLER_0_15
*872 FILLER_0_151
*873 FILLER_0_158
*874 FILLER_0_161
*875 FILLER_0_165
*876 FILLER_0_169
*877 FILLER_0_176
*878 FILLER_0_183
*879 FILLER_0_190
*880 FILLER_0_193
*881 FILLER_0_197
*882 FILLER_0_201
*883 FILLER_0_208
*884 FILLER_0_215
*885 FILLER_0_222
*886 FILLER_0_225
*887 FILLER_0_229
*888 FILLER_0_233
*889 FILLER_0_240
*890 FILLER_0_247
*891 FILLER_0_254
*892 FILLER_0_257
*893 FILLER_0_27
*894 FILLER_0_286
*895 FILLER_0_289
*896 FILLER_0_3
*897 FILLER_0_31
*898 FILLER_0_318
*899 FILLER_0_321
*900 FILLER_0_33
*901 FILLER_0_344
*902 FILLER_0_353
*903 FILLER_0_376
*904 FILLER_0_385
*905 FILLER_0_390
*906 FILLER_0_397
*907 FILLER_0_404
*908 FILLER_0_411
*909 FILLER_0_415
*910 FILLER_0_417
*911 FILLER_0_422
*912 FILLER_0_429
*913 FILLER_0_436
*914 FILLER_0_443
*915 FILLER_0_447
*916 FILLER_0_449
*917 FILLER_0_45
*918 FILLER_0_454
*919 FILLER_0_461
*920 FILLER_0_468
*921 FILLER_0_475
*922 FILLER_0_479
*923 FILLER_0_481
*924 FILLER_0_486
*925 FILLER_0_493
*926 FILLER_0_500
*927 FILLER_0_507
*928 FILLER_0_511
*929 FILLER_0_513
*930 FILLER_0_518
*931 FILLER_0_525
*932 FILLER_0_532
*933 FILLER_0_539
*934 FILLER_0_543
*935 FILLER_0_545
*936 FILLER_0_550
*937 FILLER_0_557
*938 FILLER_0_564
*939 FILLER_0_57
*940 FILLER_0_571
*941 FILLER_0_575
*942 FILLER_0_577
*943 FILLER_0_589
*944 FILLER_0_601
*945 FILLER_0_607
*946 FILLER_0_609
*947 FILLER_0_621
*948 FILLER_0_63
*949 FILLER_0_65
*950 FILLER_0_69
*951 FILLER_0_73
*952 FILLER_0_80
*953 FILLER_0_87
*954 FILLER_0_94
*955 FILLER_0_97
*956 FILLER_100_103
*957 FILLER_100_107
*958 FILLER_100_110
*959 FILLER_100_122
*960 FILLER_100_128
*961 FILLER_100_132
*962 FILLER_100_144
*963 FILLER_100_15
*964 FILLER_100_156
*965 FILLER_100_163
*966 FILLER_100_168
*967 FILLER_100_180
*968 FILLER_100_192
*969 FILLER_100_207
*970 FILLER_100_222
*971 FILLER_100_226
*972 FILLER_100_228
*973 FILLER_100_234
*974 FILLER_100_238
*975 FILLER_100_250
*976 FILLER_100_256
*977 FILLER_100_268
*978 FILLER_100_27
*979 FILLER_100_272
*980 FILLER_100_278
*981 FILLER_100_282
*982 FILLER_100_290
*983 FILLER_100_293
*984 FILLER_100_3
*985 FILLER_100_300
*986 FILLER_100_31
*987 FILLER_100_313
*988 FILLER_100_321
*989 FILLER_100_329
*990 FILLER_100_33
*991 FILLER_100_341
*992 FILLER_100_351
*993 FILLER_100_358
*994 FILLER_100_363
*995 FILLER_100_375
*996 FILLER_100_389
*997 FILLER_100_397
*998 FILLER_100_405
*999 FILLER_100_419
*1000 FILLER_100_42
*1001 FILLER_100_423
*1002 FILLER_100_431
*1003 FILLER_100_443
*1004 FILLER_100_449
*1005 FILLER_100_459
*1006 FILLER_100_473
*1007 FILLER_100_480
*1008 FILLER_100_486
*1009 FILLER_100_488
*1010 FILLER_100_493
*1011 FILLER_100_50
*1012 FILLER_100_500
*1013 FILLER_100_507
*1014 FILLER_100_514
*1015 FILLER_100_521
*1016 FILLER_100_528
*1017 FILLER_100_535
*1018 FILLER_100_542
*1019 FILLER_100_549
*1020 FILLER_100_553
*1021 FILLER_100_558
*1022 FILLER_100_565
*1023 FILLER_100_572
*1024 FILLER_100_578
*1025 FILLER_100_582
*1026 FILLER_100_589
*1027 FILLER_100_595
*1028 FILLER_100_602
*1029 FILLER_100_614
*1030 FILLER_100_618
*1031 FILLER_100_62
*1032 FILLER_100_624
*1033 FILLER_100_74
*1034 FILLER_100_86
*1035 FILLER_100_94
*1036 FILLER_100_98
*1037 FILLER_101_103
*1038 FILLER_101_108
*1039 FILLER_101_115
*1040 FILLER_101_123
*1041 FILLER_101_127
*1042 FILLER_101_129
*1043 FILLER_101_133
*1044 FILLER_101_138
*1045 FILLER_101_145
*1046 FILLER_101_15
*1047 FILLER_101_153
*1048 FILLER_101_159
*1049 FILLER_101_161
*1050 FILLER_101_168
*1051 FILLER_101_175
*1052 FILLER_101_183
*1053 FILLER_101_190
*1054 FILLER_101_193
*1055 FILLER_101_199
*1056 FILLER_101_207
*1057 FILLER_101_213
*1058 FILLER_101_222
*1059 FILLER_101_225
*1060 FILLER_101_231
*1061 FILLER_101_243
*1062 FILLER_101_252
*1063 FILLER_101_257
*1064 FILLER_101_263
*1065 FILLER_101_27
*1066 FILLER_101_273
*1067 FILLER_101_279
*1068 FILLER_101_286
*1069 FILLER_101_289
*1070 FILLER_101_295
*1071 FILLER_101_3
*1072 FILLER_101_30
*1073 FILLER_101_303
*1074 FILLER_101_307
*1075 FILLER_101_311
*1076 FILLER_101_318
*1077 FILLER_101_321
*1078 FILLER_101_327
*1079 FILLER_101_33
*1080 FILLER_101_333
*1081 FILLER_101_344
*1082 FILLER_101_350
*1083 FILLER_101_353
*1084 FILLER_101_361
*1085 FILLER_101_369
*1086 FILLER_101_376
*1087 FILLER_101_382
*1088 FILLER_101_385
*1089 FILLER_101_39
*1090 FILLER_101_397
*1091 FILLER_101_411
*1092 FILLER_101_415
*1093 FILLER_101_417
*1094 FILLER_101_43
*1095 FILLER_101_430
*1096 FILLER_101_437
*1097 FILLER_101_446
*1098 FILLER_101_449
*1099 FILLER_101_453
*1100 FILLER_101_464
*1101 FILLER_101_471
*1102 FILLER_101_478
*1103 FILLER_101_48
*1104 FILLER_101_481
*1105 FILLER_101_488
*1106 FILLER_101_495
*1107 FILLER_101_509
*1108 FILLER_101_513
*1109 FILLER_101_525
*1110 FILLER_101_539
*1111 FILLER_101_543
*1112 FILLER_101_545
*1113 FILLER_101_55
*1114 FILLER_101_551
*1115 FILLER_101_565
*1116 FILLER_101_572
*1117 FILLER_101_577
*1118 FILLER_101_583
*1119 FILLER_101_593
*1120 FILLER_101_600
*1121 FILLER_101_609
*1122 FILLER_101_62
*1123 FILLER_101_621
*1124 FILLER_101_65
*1125 FILLER_101_70
*1126 FILLER_101_77
*1127 FILLER_101_81
*1128 FILLER_101_85
*1129 FILLER_101_92
*1130 FILLER_101_97
*1131 FILLER_10_110
*1132 FILLER_10_122
*1133 FILLER_10_134
*1134 FILLER_10_146
*1135 FILLER_10_15
*1136 FILLER_10_158
*1137 FILLER_10_163
*1138 FILLER_10_175
*1139 FILLER_10_187
*1140 FILLER_10_199
*1141 FILLER_10_211
*1142 FILLER_10_223
*1143 FILLER_10_228
*1144 FILLER_10_240
*1145 FILLER_10_252
*1146 FILLER_10_264
*1147 FILLER_10_27
*1148 FILLER_10_276
*1149 FILLER_10_288
*1150 FILLER_10_293
*1151 FILLER_10_3
*1152 FILLER_10_301
*1153 FILLER_10_304
*1154 FILLER_10_31
*1155 FILLER_10_311
*1156 FILLER_10_318
*1157 FILLER_10_322
*1158 FILLER_10_326
*1159 FILLER_10_33
*1160 FILLER_10_338
*1161 FILLER_10_350
*1162 FILLER_10_356
*1163 FILLER_10_358
*1164 FILLER_10_370
*1165 FILLER_10_382
*1166 FILLER_10_394
*1167 FILLER_10_406
*1168 FILLER_10_418
*1169 FILLER_10_423
*1170 FILLER_10_435
*1171 FILLER_10_447
*1172 FILLER_10_45
*1173 FILLER_10_459
*1174 FILLER_10_471
*1175 FILLER_10_483
*1176 FILLER_10_488
*1177 FILLER_10_500
*1178 FILLER_10_512
*1179 FILLER_10_524
*1180 FILLER_10_536
*1181 FILLER_10_548
*1182 FILLER_10_553
*1183 FILLER_10_565
*1184 FILLER_10_57
*1185 FILLER_10_577
*1186 FILLER_10_589
*1187 FILLER_10_601
*1188 FILLER_10_613
*1189 FILLER_10_618
*1190 FILLER_10_624
*1191 FILLER_10_69
*1192 FILLER_10_81
*1193 FILLER_10_93
*1194 FILLER_10_98
*1195 FILLER_11_102
*1196 FILLER_11_114
*1197 FILLER_11_126
*1198 FILLER_11_131
*1199 FILLER_11_143
*1200 FILLER_11_15
*1201 FILLER_11_155
*1202 FILLER_11_167
*1203 FILLER_11_179
*1204 FILLER_11_191
*1205 FILLER_11_196
*1206 FILLER_11_208
*1207 FILLER_11_220
*1208 FILLER_11_232
*1209 FILLER_11_244
*1210 FILLER_11_256
*1211 FILLER_11_261
*1212 FILLER_11_27
*1213 FILLER_11_273
*1214 FILLER_11_285
*1215 FILLER_11_297
*1216 FILLER_11_3
*1217 FILLER_11_309
*1218 FILLER_11_313
*1219 FILLER_11_317
*1220 FILLER_11_326
*1221 FILLER_11_338
*1222 FILLER_11_350
*1223 FILLER_11_362
*1224 FILLER_11_374
*1225 FILLER_11_386
*1226 FILLER_11_39
*1227 FILLER_11_391
*1228 FILLER_11_403
*1229 FILLER_11_415
*1230 FILLER_11_427
*1231 FILLER_11_439
*1232 FILLER_11_451
*1233 FILLER_11_456
*1234 FILLER_11_468
*1235 FILLER_11_480
*1236 FILLER_11_492
*1237 FILLER_11_504
*1238 FILLER_11_51
*1239 FILLER_11_516
*1240 FILLER_11_521
*1241 FILLER_11_533
*1242 FILLER_11_545
*1243 FILLER_11_557
*1244 FILLER_11_569
*1245 FILLER_11_581
*1246 FILLER_11_586
*1247 FILLER_11_598
*1248 FILLER_11_610
*1249 FILLER_11_622
*1250 FILLER_11_63
*1251 FILLER_11_66
*1252 FILLER_11_78
*1253 FILLER_11_90
*1254 FILLER_12_110
*1255 FILLER_12_122
*1256 FILLER_12_134
*1257 FILLER_12_146
*1258 FILLER_12_15
*1259 FILLER_12_158
*1260 FILLER_12_163
*1261 FILLER_12_175
*1262 FILLER_12_187
*1263 FILLER_12_199
*1264 FILLER_12_211
*1265 FILLER_12_223
*1266 FILLER_12_228
*1267 FILLER_12_240
*1268 FILLER_12_252
*1269 FILLER_12_264
*1270 FILLER_12_27
*1271 FILLER_12_276
*1272 FILLER_12_288
*1273 FILLER_12_293
*1274 FILLER_12_3
*1275 FILLER_12_305
*1276 FILLER_12_31
*1277 FILLER_12_317
*1278 FILLER_12_329
*1279 FILLER_12_33
*1280 FILLER_12_341
*1281 FILLER_12_353
*1282 FILLER_12_358
*1283 FILLER_12_370
*1284 FILLER_12_382
*1285 FILLER_12_394
*1286 FILLER_12_406
*1287 FILLER_12_418
*1288 FILLER_12_423
*1289 FILLER_12_435
*1290 FILLER_12_447
*1291 FILLER_12_45
*1292 FILLER_12_459
*1293 FILLER_12_471
*1294 FILLER_12_483
*1295 FILLER_12_488
*1296 FILLER_12_500
*1297 FILLER_12_512
*1298 FILLER_12_524
*1299 FILLER_12_536
*1300 FILLER_12_548
*1301 FILLER_12_553
*1302 FILLER_12_565
*1303 FILLER_12_57
*1304 FILLER_12_577
*1305 FILLER_12_589
*1306 FILLER_12_601
*1307 FILLER_12_613
*1308 FILLER_12_618
*1309 FILLER_12_624
*1310 FILLER_12_69
*1311 FILLER_12_81
*1312 FILLER_12_93
*1313 FILLER_12_98
*1314 FILLER_13_102
*1315 FILLER_13_114
*1316 FILLER_13_126
*1317 FILLER_13_131
*1318 FILLER_13_143
*1319 FILLER_13_15
*1320 FILLER_13_155
*1321 FILLER_13_167
*1322 FILLER_13_179
*1323 FILLER_13_191
*1324 FILLER_13_196
*1325 FILLER_13_208
*1326 FILLER_13_220
*1327 FILLER_13_232
*1328 FILLER_13_244
*1329 FILLER_13_256
*1330 FILLER_13_261
*1331 FILLER_13_27
*1332 FILLER_13_273
*1333 FILLER_13_285
*1334 FILLER_13_297
*1335 FILLER_13_3
*1336 FILLER_13_309
*1337 FILLER_13_321
*1338 FILLER_13_326
*1339 FILLER_13_338
*1340 FILLER_13_350
*1341 FILLER_13_362
*1342 FILLER_13_374
*1343 FILLER_13_386
*1344 FILLER_13_39
*1345 FILLER_13_391
*1346 FILLER_13_403
*1347 FILLER_13_415
*1348 FILLER_13_427
*1349 FILLER_13_439
*1350 FILLER_13_451
*1351 FILLER_13_456
*1352 FILLER_13_468
*1353 FILLER_13_480
*1354 FILLER_13_492
*1355 FILLER_13_504
*1356 FILLER_13_51
*1357 FILLER_13_516
*1358 FILLER_13_521
*1359 FILLER_13_533
*1360 FILLER_13_545
*1361 FILLER_13_557
*1362 FILLER_13_569
*1363 FILLER_13_581
*1364 FILLER_13_586
*1365 FILLER_13_598
*1366 FILLER_13_610
*1367 FILLER_13_622
*1368 FILLER_13_63
*1369 FILLER_13_66
*1370 FILLER_13_78
*1371 FILLER_13_90
*1372 FILLER_14_110
*1373 FILLER_14_122
*1374 FILLER_14_134
*1375 FILLER_14_146
*1376 FILLER_14_15
*1377 FILLER_14_158
*1378 FILLER_14_163
*1379 FILLER_14_175
*1380 FILLER_14_187
*1381 FILLER_14_199
*1382 FILLER_14_211
*1383 FILLER_14_223
*1384 FILLER_14_228
*1385 FILLER_14_240
*1386 FILLER_14_252
*1387 FILLER_14_264
*1388 FILLER_14_27
*1389 FILLER_14_276
*1390 FILLER_14_288
*1391 FILLER_14_293
*1392 FILLER_14_3
*1393 FILLER_14_305
*1394 FILLER_14_31
*1395 FILLER_14_317
*1396 FILLER_14_329
*1397 FILLER_14_33
*1398 FILLER_14_341
*1399 FILLER_14_353
*1400 FILLER_14_358
*1401 FILLER_14_370
*1402 FILLER_14_382
*1403 FILLER_14_394
*1404 FILLER_14_406
*1405 FILLER_14_418
*1406 FILLER_14_423
*1407 FILLER_14_435
*1408 FILLER_14_447
*1409 FILLER_14_45
*1410 FILLER_14_459
*1411 FILLER_14_471
*1412 FILLER_14_483
*1413 FILLER_14_488
*1414 FILLER_14_500
*1415 FILLER_14_512
*1416 FILLER_14_524
*1417 FILLER_14_536
*1418 FILLER_14_548
*1419 FILLER_14_553
*1420 FILLER_14_565
*1421 FILLER_14_57
*1422 FILLER_14_577
*1423 FILLER_14_589
*1424 FILLER_14_601
*1425 FILLER_14_613
*1426 FILLER_14_618
*1427 FILLER_14_624
*1428 FILLER_14_69
*1429 FILLER_14_81
*1430 FILLER_14_93
*1431 FILLER_14_98
*1432 FILLER_15_102
*1433 FILLER_15_114
*1434 FILLER_15_126
*1435 FILLER_15_131
*1436 FILLER_15_143
*1437 FILLER_15_15
*1438 FILLER_15_155
*1439 FILLER_15_167
*1440 FILLER_15_179
*1441 FILLER_15_191
*1442 FILLER_15_196
*1443 FILLER_15_208
*1444 FILLER_15_220
*1445 FILLER_15_232
*1446 FILLER_15_244
*1447 FILLER_15_256
*1448 FILLER_15_261
*1449 FILLER_15_27
*1450 FILLER_15_273
*1451 FILLER_15_285
*1452 FILLER_15_297
*1453 FILLER_15_3
*1454 FILLER_15_309
*1455 FILLER_15_321
*1456 FILLER_15_326
*1457 FILLER_15_338
*1458 FILLER_15_350
*1459 FILLER_15_362
*1460 FILLER_15_374
*1461 FILLER_15_386
*1462 FILLER_15_39
*1463 FILLER_15_391
*1464 FILLER_15_403
*1465 FILLER_15_415
*1466 FILLER_15_427
*1467 FILLER_15_439
*1468 FILLER_15_451
*1469 FILLER_15_456
*1470 FILLER_15_468
*1471 FILLER_15_480
*1472 FILLER_15_492
*1473 FILLER_15_504
*1474 FILLER_15_51
*1475 FILLER_15_516
*1476 FILLER_15_521
*1477 FILLER_15_533
*1478 FILLER_15_545
*1479 FILLER_15_557
*1480 FILLER_15_569
*1481 FILLER_15_581
*1482 FILLER_15_586
*1483 FILLER_15_598
*1484 FILLER_15_610
*1485 FILLER_15_622
*1486 FILLER_15_63
*1487 FILLER_15_66
*1488 FILLER_15_78
*1489 FILLER_15_90
*1490 FILLER_16_110
*1491 FILLER_16_122
*1492 FILLER_16_134
*1493 FILLER_16_146
*1494 FILLER_16_15
*1495 FILLER_16_158
*1496 FILLER_16_163
*1497 FILLER_16_175
*1498 FILLER_16_187
*1499 FILLER_16_199
*1500 FILLER_16_211
*1501 FILLER_16_223
*1502 FILLER_16_228
*1503 FILLER_16_240
*1504 FILLER_16_252
*1505 FILLER_16_264
*1506 FILLER_16_27
*1507 FILLER_16_276
*1508 FILLER_16_288
*1509 FILLER_16_293
*1510 FILLER_16_3
*1511 FILLER_16_305
*1512 FILLER_16_31
*1513 FILLER_16_317
*1514 FILLER_16_329
*1515 FILLER_16_33
*1516 FILLER_16_341
*1517 FILLER_16_353
*1518 FILLER_16_358
*1519 FILLER_16_370
*1520 FILLER_16_382
*1521 FILLER_16_394
*1522 FILLER_16_406
*1523 FILLER_16_418
*1524 FILLER_16_423
*1525 FILLER_16_435
*1526 FILLER_16_447
*1527 FILLER_16_45
*1528 FILLER_16_459
*1529 FILLER_16_471
*1530 FILLER_16_483
*1531 FILLER_16_488
*1532 FILLER_16_500
*1533 FILLER_16_512
*1534 FILLER_16_524
*1535 FILLER_16_536
*1536 FILLER_16_548
*1537 FILLER_16_553
*1538 FILLER_16_565
*1539 FILLER_16_57
*1540 FILLER_16_577
*1541 FILLER_16_589
*1542 FILLER_16_601
*1543 FILLER_16_613
*1544 FILLER_16_618
*1545 FILLER_16_624
*1546 FILLER_16_69
*1547 FILLER_16_81
*1548 FILLER_16_93
*1549 FILLER_16_98
*1550 FILLER_17_102
*1551 FILLER_17_114
*1552 FILLER_17_126
*1553 FILLER_17_131
*1554 FILLER_17_143
*1555 FILLER_17_15
*1556 FILLER_17_155
*1557 FILLER_17_167
*1558 FILLER_17_179
*1559 FILLER_17_191
*1560 FILLER_17_196
*1561 FILLER_17_208
*1562 FILLER_17_220
*1563 FILLER_17_232
*1564 FILLER_17_244
*1565 FILLER_17_256
*1566 FILLER_17_261
*1567 FILLER_17_27
*1568 FILLER_17_273
*1569 FILLER_17_285
*1570 FILLER_17_297
*1571 FILLER_17_3
*1572 FILLER_17_309
*1573 FILLER_17_321
*1574 FILLER_17_326
*1575 FILLER_17_338
*1576 FILLER_17_350
*1577 FILLER_17_362
*1578 FILLER_17_374
*1579 FILLER_17_386
*1580 FILLER_17_39
*1581 FILLER_17_391
*1582 FILLER_17_403
*1583 FILLER_17_415
*1584 FILLER_17_427
*1585 FILLER_17_439
*1586 FILLER_17_451
*1587 FILLER_17_456
*1588 FILLER_17_468
*1589 FILLER_17_480
*1590 FILLER_17_492
*1591 FILLER_17_504
*1592 FILLER_17_51
*1593 FILLER_17_516
*1594 FILLER_17_521
*1595 FILLER_17_533
*1596 FILLER_17_545
*1597 FILLER_17_557
*1598 FILLER_17_569
*1599 FILLER_17_581
*1600 FILLER_17_586
*1601 FILLER_17_598
*1602 FILLER_17_610
*1603 FILLER_17_622
*1604 FILLER_17_63
*1605 FILLER_17_66
*1606 FILLER_17_78
*1607 FILLER_17_90
*1608 FILLER_18_110
*1609 FILLER_18_122
*1610 FILLER_18_134
*1611 FILLER_18_146
*1612 FILLER_18_15
*1613 FILLER_18_158
*1614 FILLER_18_163
*1615 FILLER_18_175
*1616 FILLER_18_187
*1617 FILLER_18_199
*1618 FILLER_18_211
*1619 FILLER_18_223
*1620 FILLER_18_228
*1621 FILLER_18_240
*1622 FILLER_18_252
*1623 FILLER_18_264
*1624 FILLER_18_27
*1625 FILLER_18_276
*1626 FILLER_18_288
*1627 FILLER_18_293
*1628 FILLER_18_3
*1629 FILLER_18_305
*1630 FILLER_18_31
*1631 FILLER_18_317
*1632 FILLER_18_329
*1633 FILLER_18_33
*1634 FILLER_18_341
*1635 FILLER_18_353
*1636 FILLER_18_358
*1637 FILLER_18_370
*1638 FILLER_18_382
*1639 FILLER_18_394
*1640 FILLER_18_406
*1641 FILLER_18_418
*1642 FILLER_18_423
*1643 FILLER_18_435
*1644 FILLER_18_447
*1645 FILLER_18_45
*1646 FILLER_18_459
*1647 FILLER_18_471
*1648 FILLER_18_483
*1649 FILLER_18_488
*1650 FILLER_18_500
*1651 FILLER_18_512
*1652 FILLER_18_524
*1653 FILLER_18_536
*1654 FILLER_18_548
*1655 FILLER_18_553
*1656 FILLER_18_565
*1657 FILLER_18_57
*1658 FILLER_18_577
*1659 FILLER_18_589
*1660 FILLER_18_601
*1661 FILLER_18_613
*1662 FILLER_18_618
*1663 FILLER_18_624
*1664 FILLER_18_69
*1665 FILLER_18_81
*1666 FILLER_18_93
*1667 FILLER_18_98
*1668 FILLER_19_102
*1669 FILLER_19_114
*1670 FILLER_19_126
*1671 FILLER_19_131
*1672 FILLER_19_143
*1673 FILLER_19_15
*1674 FILLER_19_155
*1675 FILLER_19_167
*1676 FILLER_19_179
*1677 FILLER_19_191
*1678 FILLER_19_196
*1679 FILLER_19_208
*1680 FILLER_19_220
*1681 FILLER_19_232
*1682 FILLER_19_244
*1683 FILLER_19_256
*1684 FILLER_19_261
*1685 FILLER_19_27
*1686 FILLER_19_273
*1687 FILLER_19_285
*1688 FILLER_19_297
*1689 FILLER_19_3
*1690 FILLER_19_309
*1691 FILLER_19_321
*1692 FILLER_19_326
*1693 FILLER_19_338
*1694 FILLER_19_350
*1695 FILLER_19_362
*1696 FILLER_19_374
*1697 FILLER_19_386